<?xml version="1.0" encoding="UTF-8"?>

<!-- generated on 2024-05-28 01:45:29 by Eclipse SUMO netconvert Version UNKNOWN
<configuration xmlns:xsi="http://www.w3.org/2001/XMLSchema-instance" xsi:noNamespaceSchemaLocation="http://sumo.dlr.de/xsd/netconvertConfiguration.xsd">

    <input>
        <node-files value="/home/yao/flow/flow/core/debug/net/figure8_20240528-0145291716831929.7945879.nod.xml"/>
        <edge-files value="/home/yao/flow/flow/core/debug/net/figure8_20240528-0145291716831929.7945879.edg.xml"/>
        <type-files value="/home/yao/flow/flow/core/debug/net/figure8_20240528-0145291716831929.7945879.typ.xml"/>
    </input>

    <output>
        <output-file value="/home/yao/flow/flow/core/debug/cfg/figure8_20240528-0145291716831929.7945879.net.xml"/>
    </output>

    <junctions>
        <no-internal-links value="false"/>
        <no-turnarounds value="true"/>
    </junctions>

</configuration>
-->

<net version="1.20" junctionCornerDetail="5" limitTurnSpeed="5.50" xmlns:xsi="http://www.w3.org/2001/XMLSchema-instance" xsi:noNamespaceSchemaLocation="http://sumo.dlr.de/xsd/net_file.xsd">

    <location netOffset="60.00,60.00" convBoundary="0.00,0.00,120.00,120.00" origBoundary="-60.00,-60.00,60.00,60.00" projParameter="!"/>

    <type id="edgeType" numLanes="1" speed="30.00"/>

    <edge id=":bottom_lower_ring_0" function="internal">
        <lane id=":bottom_lower_ring_0_0" index="0" speed="30.00" length="0.10" shape="29.97,-1.60 30.03,-1.60"/>
    </edge>
    <edge id=":bottom_upper_ring_in_0" function="internal">
        <lane id=":bottom_upper_ring_in_0_0" index="0" speed="30.00" length="0.29" shape="90.13,61.60 89.84,61.60"/>
    </edge>
    <edge id=":center_intersection_0" function="internal">
        <lane id=":center_intersection_0_0" index="0" speed="6.51" length="9.03" shape="67.20,61.60 64.75,61.95 63.00,63.00 61.95,64.75 61.60,67.20"/>
    </edge>
    <edge id=":center_intersection_1" function="internal">
        <lane id=":center_intersection_1_0" index="0" speed="30.00" length="11.20" shape="67.20,61.60 56.00,61.60"/>
    </edge>
    <edge id=":center_intersection_2" function="internal">
        <lane id=":center_intersection_2_0" index="0" speed="30.00" length="11.20" shape="61.60,56.00 61.60,67.20"/>
    </edge>
    <edge id=":center_intersection_3" function="internal">
        <lane id=":center_intersection_3_0" index="0" speed="6.51" length="9.03" shape="61.60,56.00 61.25,58.45 60.20,60.20 58.45,61.25 56.00,61.60"/>
    </edge>
    <edge id=":left_lower_ring_0" function="internal">
        <lane id=":left_lower_ring_0_0" index="0" speed="30.00" length="0.10" shape="-1.60,30.03 -1.60,29.97"/>
    </edge>
    <edge id=":left_upper_ring_0" function="internal">
        <lane id=":left_upper_ring_0_0" index="0" speed="30.00" length="0.29" shape="61.60,89.84 61.60,90.13"/>
    </edge>
    <edge id=":right_lower_ring_in_0" function="internal">
        <lane id=":right_lower_ring_in_0_0" index="0" speed="30.00" length="0.29" shape="61.60,29.84 61.60,30.13"/>
    </edge>
    <edge id=":right_upper_ring_0" function="internal">
        <lane id=":right_upper_ring_0_0" index="0" speed="30.00" length="0.25" shape="118.40,90.13 118.40,89.87"/>
    </edge>
    <edge id=":top_lower_ring_0" function="internal">
        <lane id=":top_lower_ring_0_0" index="0" speed="30.00" length="0.29" shape="30.13,61.60 29.84,61.60"/>
    </edge>
    <edge id=":top_upper_ring_0" function="internal">
        <lane id=":top_upper_ring_0_0" index="0" speed="30.00" length="0.25" shape="89.87,118.40 90.13,118.40"/>
    </edge>

    <edge id="bottom_lower_ring" from="bottom_lower_ring" to="right_lower_ring_in" priority="-1" type="edgeType" length="47.12" shape="30.00,0.00 31.21,0.02 32.41,0.10 33.62,0.22 34.81,0.39 36.00,0.61 37.18,0.87 38.35,1.18 39.50,1.54 40.64,1.95 41.76,2.40 42.86,2.90 43.94,3.44 45.00,4.02 46.03,4.64 47.04,5.31 48.02,6.02 48.97,6.76 49.89,7.54 50.78,8.36 51.64,9.22 52.46,10.11 53.24,11.03 53.98,11.98 54.69,12.96 55.36,13.97 55.98,15.00 56.56,16.06 57.10,17.14 57.60,18.24 58.05,19.36 58.46,20.50 58.82,21.65 59.13,22.82 59.39,24.00 59.61,25.19 59.78,26.38 59.90,27.59 59.98,28.79 60.00,30.00">
        <lane id="bottom_lower_ring_0" index="0" speed="30.00" length="47.12" shape="30.03,-1.60 31.28,-1.58 32.54,-1.49 33.81,-1.37 35.07,-1.19 36.32,-0.96 37.56,-0.68 38.79,-0.36 40.01,0.02 41.21,0.45 42.39,0.93 43.55,1.46 44.68,2.02 45.80,2.63 46.89,3.29 47.95,4.00 48.98,4.74 49.98,5.52 50.95,6.34 51.89,7.21 52.79,8.11 53.66,9.05 54.48,10.02 55.26,11.02 56.00,12.05 56.71,13.11 57.37,14.20 57.98,15.32 58.54,16.45 59.07,17.61 59.55,18.79 59.98,19.99 60.36,21.21 60.68,22.44 60.96,23.68 61.19,24.93 61.37,26.19 61.49,27.46 61.58,28.72 61.60,29.84"/>
    </edge>
    <edge id="bottom_upper_ring_in" from="bottom_upper_ring_in" to="center_intersection" priority="46" type="edgeType" length="30.00">
        <lane id="bottom_upper_ring_in_0" index="0" speed="30.00" length="30.00" shape="89.84,61.60 67.20,61.60"/>
    </edge>
    <edge id="bottom_upper_ring_out" from="center_intersection" to="top_lower_ring" priority="46" type="edgeType" length="30.00">
        <lane id="bottom_upper_ring_out_0" index="0" speed="30.00" length="30.00" shape="56.00,61.60 30.13,61.60"/>
    </edge>
    <edge id="left_lower_ring" from="left_lower_ring" to="bottom_lower_ring" priority="-1" type="edgeType" length="47.12" shape="0.00,30.00 0.02,28.79 0.10,27.59 0.22,26.38 0.39,25.19 0.61,24.00 0.87,22.82 1.18,21.65 1.54,20.50 1.95,19.36 2.40,18.24 2.90,17.14 3.44,16.06 4.02,15.00 4.64,13.97 5.31,12.96 6.02,11.98 6.76,11.03 7.54,10.11 8.36,9.22 9.22,8.36 10.11,7.54 11.03,6.76 11.98,6.02 12.96,5.31 13.97,4.64 15.00,4.02 16.06,3.44 17.14,2.90 18.24,2.40 19.36,1.95 20.50,1.54 21.65,1.18 22.82,0.87 24.00,0.61 25.19,0.39 26.38,0.22 27.59,0.10 28.79,0.02 30.00,0.00">
        <lane id="left_lower_ring_0" index="0" speed="30.00" length="47.12" shape="-1.60,29.97 -1.58,28.72 -1.49,27.46 -1.37,26.19 -1.19,24.93 -0.96,23.68 -0.68,22.44 -0.36,21.21 0.02,19.99 0.45,18.79 0.93,17.61 1.46,16.45 2.02,15.32 2.63,14.20 3.29,13.11 4.00,12.05 4.74,11.02 5.52,10.02 6.34,9.05 7.21,8.11 8.11,7.21 9.05,6.34 10.02,5.52 11.02,4.74 12.05,4.00 13.11,3.29 14.20,2.63 15.32,2.02 16.45,1.46 17.61,0.93 18.79,0.45 19.99,0.02 21.21,-0.36 22.44,-0.68 23.68,-0.96 24.93,-1.19 26.19,-1.37 27.46,-1.49 28.72,-1.58 29.97,-1.60"/>
    </edge>
    <edge id="left_upper_ring" from="left_upper_ring" to="top_upper_ring" priority="-1" type="edgeType" length="47.12" shape="60.00,90.00 60.02,91.21 60.10,92.41 60.22,93.62 60.39,94.81 60.61,96.00 60.87,97.18 61.18,98.35 61.54,99.50 61.95,100.64 62.40,101.76 62.90,102.86 63.44,103.94 64.02,105.00 64.64,106.03 65.31,107.04 66.02,108.02 66.76,108.97 67.54,109.89 68.36,110.78 69.22,111.64 70.11,112.46 71.03,113.24 71.98,113.98 72.96,114.69 73.97,115.36 75.00,115.98 76.06,116.56 77.14,117.10 78.24,117.60 79.36,118.05 80.50,118.46 81.65,118.82 82.82,119.13 84.00,119.39 85.19,119.61 86.38,119.78 87.59,119.90 88.79,119.98 90.00,120.00">
        <lane id="left_upper_ring_0" index="0" speed="30.00" length="47.12" shape="61.60,90.13 61.62,91.14 61.69,92.28 61.81,93.43 61.97,94.55 62.18,95.68 62.42,96.80 62.72,97.91 63.06,98.99 63.45,100.07 63.87,101.13 64.34,102.17 64.86,103.20 65.41,104.20 65.99,105.17 66.62,106.13 67.30,107.06 68.00,107.96 68.74,108.83 69.51,109.67 70.33,110.49 71.17,111.26 72.04,112.00 72.94,112.70 73.87,113.38 74.83,114.01 75.80,114.59 76.80,115.14 77.83,115.66 78.87,116.13 79.93,116.55 81.01,116.94 82.09,117.28 83.20,117.58 84.32,117.82 85.45,118.03 86.57,118.19 87.72,118.31 88.86,118.38 89.87,118.40"/>
    </edge>
    <edge id="right_lower_ring_in" from="right_lower_ring_in" to="center_intersection" priority="78" type="edgeType" length="30.00">
        <lane id="right_lower_ring_in_0" index="0" speed="30.00" length="30.00" shape="61.60,30.13 61.60,56.00"/>
    </edge>
    <edge id="right_lower_ring_out" from="center_intersection" to="left_upper_ring" priority="78" type="edgeType" length="30.00">
        <lane id="right_lower_ring_out_0" index="0" speed="30.00" length="30.00" shape="61.60,67.20 61.60,89.84"/>
    </edge>
    <edge id="right_upper_ring" from="right_upper_ring" to="bottom_upper_ring_in" priority="-1" type="edgeType" length="47.12" shape="120.00,90.00 119.98,88.79 119.90,87.59 119.78,86.38 119.61,85.19 119.39,84.00 119.13,82.82 118.82,81.65 118.46,80.50 118.05,79.36 117.60,78.24 117.10,77.14 116.56,76.06 115.98,75.00 115.36,73.97 114.69,72.96 113.98,71.98 113.24,71.03 112.46,70.11 111.64,69.22 110.78,68.36 109.89,67.54 108.97,66.76 108.02,66.02 107.04,65.31 106.03,64.64 105.00,64.02 103.94,63.44 102.86,62.90 101.76,62.40 100.64,61.95 99.50,61.54 98.35,61.18 97.18,60.87 96.00,60.61 94.81,60.39 93.62,60.22 92.41,60.10 91.21,60.02 90.00,60.00">
        <lane id="right_upper_ring_0" index="0" speed="30.00" length="47.12" shape="118.40,89.87 118.38,88.86 118.31,87.72 118.19,86.57 118.03,85.45 117.82,84.32 117.58,83.20 117.28,82.09 116.94,81.01 116.55,79.93 116.13,78.87 115.66,77.83 115.14,76.80 114.59,75.80 114.01,74.83 113.38,73.87 112.70,72.94 112.00,72.04 111.26,71.17 110.49,70.33 109.67,69.51 108.83,68.74 107.96,68.00 107.06,67.30 106.13,66.62 105.17,65.99 104.20,65.41 103.20,64.86 102.17,64.34 101.13,63.87 100.07,63.45 98.99,63.06 97.91,62.72 96.80,62.42 95.68,62.18 94.55,61.97 93.43,61.81 92.28,61.69 91.14,61.62 90.13,61.60"/>
    </edge>
    <edge id="top_lower_ring" from="top_lower_ring" to="left_lower_ring" priority="-1" type="edgeType" length="47.12" shape="30.00,60.00 28.79,59.98 27.59,59.90 26.38,59.78 25.19,59.61 24.00,59.39 22.82,59.13 21.65,58.82 20.50,58.46 19.36,58.05 18.24,57.60 17.14,57.10 16.06,56.56 15.00,55.98 13.97,55.36 12.96,54.69 11.98,53.98 11.03,53.24 10.11,52.46 9.22,51.64 8.36,50.78 7.54,49.89 6.76,48.97 6.02,48.02 5.31,47.04 4.64,46.03 4.02,45.00 3.44,43.94 2.90,42.86 2.40,41.76 1.95,40.64 1.54,39.50 1.18,38.35 0.87,37.18 0.61,36.00 0.39,34.81 0.22,33.62 0.10,32.41 0.02,31.21 0.00,30.00">
        <lane id="top_lower_ring_0" index="0" speed="30.00" length="47.12" shape="29.84,61.60 28.72,61.58 27.46,61.49 26.19,61.37 24.93,61.19 23.68,60.96 22.44,60.68 21.21,60.36 19.99,59.98 18.79,59.55 17.61,59.07 16.45,58.54 15.32,57.98 14.20,57.37 13.11,56.71 12.05,56.00 11.02,55.26 10.02,54.48 9.05,53.66 8.11,52.79 7.21,51.89 6.34,50.95 5.52,49.98 4.74,48.98 4.00,47.95 3.29,46.89 2.63,45.80 2.02,44.68 1.46,43.55 0.93,42.39 0.45,41.21 0.02,40.01 -0.36,38.79 -0.68,37.56 -0.96,36.32 -1.19,35.07 -1.37,33.81 -1.49,32.54 -1.58,31.28 -1.60,30.03"/>
    </edge>
    <edge id="top_upper_ring" from="top_upper_ring" to="right_upper_ring" priority="-1" type="edgeType" length="47.12" shape="90.00,120.00 91.21,119.98 92.41,119.90 93.62,119.78 94.81,119.61 96.00,119.39 97.18,119.13 98.35,118.82 99.50,118.46 100.64,118.05 101.76,117.60 102.86,117.10 103.94,116.56 105.00,115.98 106.03,115.36 107.04,114.69 108.02,113.98 108.97,113.24 109.89,112.46 110.78,111.64 111.64,110.78 112.46,109.89 113.24,108.97 113.98,108.02 114.69,107.04 115.36,106.03 115.98,105.00 116.56,103.94 117.10,102.86 117.60,101.76 118.05,100.64 118.46,99.50 118.82,98.35 119.13,97.18 119.39,96.00 119.61,94.81 119.78,93.62 119.90,92.41 119.98,91.21 120.00,90.00">
        <lane id="top_upper_ring_0" index="0" speed="30.00" length="47.12" shape="90.13,118.40 91.14,118.38 92.28,118.31 93.43,118.19 94.55,118.03 95.68,117.82 96.80,117.58 97.91,117.28 98.99,116.94 100.07,116.55 101.13,116.13 102.17,115.66 103.20,115.14 104.20,114.59 105.17,114.01 106.13,113.38 107.06,112.70 107.96,112.00 108.83,111.26 109.67,110.49 110.49,109.67 111.26,108.83 112.00,107.96 112.70,107.06 113.38,106.13 114.01,105.17 114.59,104.20 115.14,103.20 115.66,102.17 116.13,101.13 116.55,100.07 116.94,98.99 117.28,97.91 117.58,96.80 117.82,95.68 118.03,94.55 118.19,93.43 118.31,92.28 118.38,91.14 118.40,90.13"/>
    </edge>

    <junction id="bottom_lower_ring" type="priority" x="30.00" y="0.00" incLanes="left_lower_ring_0" intLanes=":bottom_lower_ring_0_0" shape="30.10,0.00 30.15,-3.20 29.85,-3.20 29.90,0.00">
        <request index="0" response="0" foes="0" cont="0"/>
    </junction>
    <junction id="bottom_upper_ring_in" type="priority" x="90.00" y="60.00" incLanes="right_upper_ring_0" intLanes=":bottom_upper_ring_in_0_0" shape="90.11,63.20 90.16,60.00 89.84,60.00 89.84,63.20">
        <request index="0" response="0" foes="0" cont="0"/>
    </junction>
    <junction id="center_intersection" type="priority" x="60.00" y="60.00" incLanes="bottom_upper_ring_in_0 right_lower_ring_in_0" intLanes=":center_intersection_0_0 :center_intersection_1_0 :center_intersection_2_0 :center_intersection_3_0" shape="60.00,67.20 63.20,67.20 63.64,64.98 64.20,64.20 64.98,63.64 65.98,63.31 67.20,63.20 67.20,60.00 64.98,59.56 64.20,59.00 63.64,58.22 63.31,57.22 63.20,56.00 60.00,56.00 59.56,58.22 59.00,59.00 58.22,59.56 57.22,59.89 56.00,60.00 56.00,63.20 58.22,63.64 59.00,64.20 59.56,64.98 59.89,65.98">
        <request index="0" response="0100" foes="0100" cont="0"/>
        <request index="1" response="1100" foes="1100" cont="0"/>
        <request index="2" response="0000" foes="0011" cont="0"/>
        <request index="3" response="0000" foes="0010" cont="0"/>
    </junction>
    <junction id="left_lower_ring" type="priority" x="0.00" y="30.00" incLanes="top_lower_ring_0" intLanes=":left_lower_ring_0_0" shape="-3.20,30.15 0.00,30.10 0.00,29.90 -3.20,29.85">
        <request index="0" response="0" foes="0" cont="0"/>
    </junction>
    <junction id="left_upper_ring" type="priority" x="60.00" y="90.00" incLanes="right_lower_ring_out_0" intLanes=":left_upper_ring_0_0" shape="60.00,90.16 63.20,90.11 63.20,89.84 60.00,89.84">
        <request index="0" response="0" foes="0" cont="0"/>
    </junction>
    <junction id="right_lower_ring_in" type="priority" x="60.00" y="30.00" incLanes="bottom_lower_ring_0" intLanes=":right_lower_ring_in_0_0" shape="60.00,30.13 63.20,30.13 63.20,29.82 60.00,29.87">
        <request index="0" response="0" foes="0" cont="0"/>
    </junction>
    <junction id="right_upper_ring" type="priority" x="120.00" y="90.00" incLanes="top_upper_ring_0" intLanes=":right_upper_ring_0_0" shape="120.00,89.85 116.80,89.90 116.80,90.10 120.00,90.15">
        <request index="0" response="0" foes="0" cont="0"/>
    </junction>
    <junction id="top_lower_ring" type="priority" x="30.00" y="60.00" incLanes="bottom_upper_ring_out_0" intLanes=":top_lower_ring_0_0" shape="30.13,63.20 30.13,60.00 29.87,60.00 29.82,63.20">
        <request index="0" response="0" foes="0" cont="0"/>
    </junction>
    <junction id="top_upper_ring" type="priority" x="90.00" y="120.00" incLanes="left_upper_ring_0" intLanes=":top_upper_ring_0_0" shape="90.15,120.00 90.10,116.80 89.90,116.80 89.85,120.00">
        <request index="0" response="0" foes="0" cont="0"/>
    </junction>

    <connection from="bottom_lower_ring" to="right_lower_ring_in" fromLane="0" toLane="0" via=":right_lower_ring_in_0_0" dir="s" state="M"/>
    <connection from="bottom_upper_ring_in" to="right_lower_ring_out" fromLane="0" toLane="0" via=":center_intersection_0_0" dir="r" state="m"/>
    <connection from="bottom_upper_ring_in" to="bottom_upper_ring_out" fromLane="0" toLane="0" via=":center_intersection_1_0" dir="s" state="m"/>
    <connection from="bottom_upper_ring_out" to="top_lower_ring" fromLane="0" toLane="0" via=":top_lower_ring_0_0" dir="s" state="M"/>
    <connection from="left_lower_ring" to="bottom_lower_ring" fromLane="0" toLane="0" via=":bottom_lower_ring_0_0" dir="s" state="M"/>
    <connection from="left_upper_ring" to="top_upper_ring" fromLane="0" toLane="0" via=":top_upper_ring_0_0" dir="s" state="M"/>
    <connection from="right_lower_ring_in" to="right_lower_ring_out" fromLane="0" toLane="0" via=":center_intersection_2_0" dir="s" state="M"/>
    <connection from="right_lower_ring_in" to="bottom_upper_ring_out" fromLane="0" toLane="0" via=":center_intersection_3_0" dir="l" state="M"/>
    <connection from="right_lower_ring_out" to="left_upper_ring" fromLane="0" toLane="0" via=":left_upper_ring_0_0" dir="s" state="M"/>
    <connection from="right_upper_ring" to="bottom_upper_ring_in" fromLane="0" toLane="0" via=":bottom_upper_ring_in_0_0" dir="s" state="M"/>
    <connection from="top_lower_ring" to="left_lower_ring" fromLane="0" toLane="0" via=":left_lower_ring_0_0" dir="s" state="M"/>
    <connection from="top_upper_ring" to="right_upper_ring" fromLane="0" toLane="0" via=":right_upper_ring_0_0" dir="s" state="M"/>

    <connection from=":bottom_lower_ring_0" to="bottom_lower_ring" fromLane="0" toLane="0" dir="s" state="M"/>
    <connection from=":bottom_upper_ring_in_0" to="bottom_upper_ring_in" fromLane="0" toLane="0" dir="s" state="M"/>
    <connection from=":center_intersection_0" to="right_lower_ring_out" fromLane="0" toLane="0" dir="r" state="M"/>
    <connection from=":center_intersection_1" to="bottom_upper_ring_out" fromLane="0" toLane="0" dir="s" state="M"/>
    <connection from=":center_intersection_2" to="right_lower_ring_out" fromLane="0" toLane="0" dir="s" state="M"/>
    <connection from=":center_intersection_3" to="bottom_upper_ring_out" fromLane="0" toLane="0" dir="l" state="M"/>
    <connection from=":left_lower_ring_0" to="left_lower_ring" fromLane="0" toLane="0" dir="s" state="M"/>
    <connection from=":left_upper_ring_0" to="left_upper_ring" fromLane="0" toLane="0" dir="s" state="M"/>
    <connection from=":right_lower_ring_in_0" to="right_lower_ring_in" fromLane="0" toLane="0" dir="s" state="M"/>
    <connection from=":right_upper_ring_0" to="right_upper_ring" fromLane="0" toLane="0" dir="s" state="M"/>
    <connection from=":top_lower_ring_0" to="top_lower_ring" fromLane="0" toLane="0" dir="s" state="M"/>
    <connection from=":top_upper_ring_0" to="top_upper_ring" fromLane="0" toLane="0" dir="s" state="M"/>

</net>
