<?xml version='1.0' encoding='UTF-8'?>
<configuration xmlns:xsi="http://www.w3.org/2001/XMLSchema-instance" xsi:noNamespaceSchemaLocation="http://sumo.dlr.de/xsd/sumoConfiguration.xsd">
  <input>
    <net-file value="figure8_20240527-1815571716804957.2457166.net.xml"/>
    <route-files value="figure8_20240527-1815571716804957.2457166.rou.xml"/>
    <additional-files value="figure8_20240527-1815571716804957.2457166.add.xml"/>
    <gui-settings-file value="figure8_20240527-1815571716804957.2457166.gui.cfg"/>
  </input>
  <time>
    <begin value="0"/>
  </time>
</configuration>
