<?xml version='1.0' encoding='UTF-8'?>
<configuration xmlns:xsi="http://www.w3.org/2001/XMLSchema-instance" xsi:noNamespaceSchemaLocation="http://sumo.dlr.de/xsd/sumoConfiguration.xsd">
  <input>
    <net-file value="figure8_20240528-0032511716827571.4131887.net.xml"/>
    <route-files value="figure8_20240528-0032511716827571.4131887.rou.xml"/>
    <additional-files value="figure8_20240528-0032511716827571.4131887.add.xml"/>
    <gui-settings-file value="figure8_20240528-0032511716827571.4131887.gui.cfg"/>
  </input>
  <time>
    <begin value="0"/>
  </time>
</configuration>
