<?xml version='1.0' encoding='UTF-8'?>
<routes xmlns:xsi="http://www.w3.org/2001/XMLSchema-instance" xsi:noNamespaceSchemaLocation="http://sumo.dlr.de/xsd/routes_file.xsd">
  <vType accel="1.0" carFollowModel="IDM" decel="1.5" id="idm" impatience="0.5" laneChangeModel="LC2013" lcCooperative="1.0" lcKeepRight="1.0" lcSpeedGain="1.0" lcStrategic="1.0" maxSpeed="30" minGap="0.0" sigma="0.5" speedDev="0.1" speedFactor="1.0" tau="1.0"/>
  <vehicle color="1,1,1" depart="0" departLane="0" departPos="0" departSpeed="0" id="idm_0" route="routebottom_lower_ring" type="idm"/>
  <vehicle color="1,1,1" depart="0" departLane="0" departPos="28.76571428571429" departSpeed="0" id="idm_1" route="routebottom_lower_ring" type="idm"/>
  <vehicle color="1,1,1" depart="0" departLane="0" departPos="10.127538767581683" departSpeed="0" id="idm_2" route="routeright_lower_ring_in" type="idm"/>
  <vehicle color="1,1,1" depart="0" departLane="0" departPos="2.4132530532959606" departSpeed="0" id="idm_3" route="routeright_lower_ring_out" type="idm"/>
  <vehicle color="1,1,1" depart="0" departLane="0" departPos="0.8989673390102553" departSpeed="0" id="idm_4" route="routeleft_upper_ring" type="idm"/>
  <vehicle color="1,1,1" depart="0" departLane="0" departPos="29.66468162472455" departSpeed="0" id="idm_5" route="routeleft_upper_ring" type="idm"/>
  <vehicle color="1,1,1" depart="0" departLane="0" departPos="11.026506106591967" departSpeed="0" id="idm_6" route="routetop_upper_ring" type="idm"/>
  <vehicle color="1,1,1" depart="0" departLane="0" departPos="39.79222039230626" departSpeed="0" id="idm_7" route="routetop_upper_ring" type="idm"/>
  <vehicle color="1,1,1" depart="0" departLane="0" departPos="21.154044874173678" departSpeed="0" id="idm_8" route="routeright_upper_ring" type="idm"/>
  <vehicle color="1,1,1" depart="0" departLane="0" departPos="2.515869356041094" departSpeed="0" id="idm_9" route="routebottom_upper_ring_in" type="idm"/>
  <vehicle color="1,1,1" depart="0" departLane="0" departPos="0" departSpeed="0" id="idm_10" route="routebottom_upper_ring_out" type="idm"/>
  <vehicle color="1,1,1" depart="0" departLane="0" departPos="28.765714285714296" departSpeed="0" id="idm_11" route="routebottom_upper_ring_out" type="idm"/>
  <vehicle color="1,1,1" depart="0" departLane="0" departPos="27.25142857142862" departSpeed="0" id="idm_12" route="routetop_lower_ring" type="idm"/>
  <vehicle color="1,1,1" depart="0" departLane="0" departPos="8.613253053295978" departSpeed="0" id="idm_13" route="routeleft_lower_ring" type="idm"/>
</routes>
