<?xml version='1.0' encoding='UTF-8'?>
<routes xmlns:xsi="http://www.w3.org/2001/XMLSchema-instance" xsi:noNamespaceSchemaLocation="http://sumo.dlr.de/xsd/routes_file.xsd">
  <vType accel="1.0" carFollowModel="IDM" decel="1.5" id="human" impatience="0.5" laneChangeModel="LC2013" lcCooperative="1.0" lcKeepRight="1.0" lcSpeedGain="1.0" lcStrategic="1.0" maxSpeed="30" minGap="2.5" sigma="0.5" speedDev="0.1" speedFactor="1.0" tau="1.0"/>
  <vehicle color="1,1,1" depart="0" departLane="0" departPos="6" departSpeed="0" id="human_0" route="routeright0_0" type="human"/>
  <vehicle color="1,1,1" depart="0" departLane="0" departPos="6" departSpeed="0" id="human_1" route="routeleft2_0" type="human"/>
  <vehicle color="1,1,1" depart="0" departLane="0" departPos="16" departSpeed="0" id="human_2" route="routeright0_0" type="human"/>
  <vehicle color="1,1,1" depart="0" departLane="0" departPos="16" departSpeed="0" id="human_3" route="routeleft2_0" type="human"/>
  <vehicle color="1,1,1" depart="0" departLane="0" departPos="26" departSpeed="0" id="human_4" route="routeright0_0" type="human"/>
  <vehicle color="1,1,1" depart="0" departLane="0" departPos="26" departSpeed="0" id="human_5" route="routeleft2_0" type="human"/>
  <vehicle color="1,1,1" depart="0" departLane="0" departPos="36" departSpeed="0" id="human_6" route="routeright0_0" type="human"/>
  <vehicle color="1,1,1" depart="0" departLane="0" departPos="36" departSpeed="0" id="human_7" route="routeleft2_0" type="human"/>
  <vehicle color="1,1,1" depart="0" departLane="0" departPos="46" departSpeed="0" id="human_8" route="routeright0_0" type="human"/>
  <vehicle color="1,1,1" depart="0" departLane="0" departPos="46" departSpeed="0" id="human_9" route="routeleft2_0" type="human"/>
  <vehicle color="1,1,1" depart="0" departLane="0" departPos="56" departSpeed="0" id="human_10" route="routeright0_0" type="human"/>
  <vehicle color="1,1,1" depart="0" departLane="0" departPos="56" departSpeed="0" id="human_11" route="routeleft2_0" type="human"/>
  <vehicle color="1,1,1" depart="0" departLane="0" departPos="66" departSpeed="0" id="human_12" route="routeright0_0" type="human"/>
  <vehicle color="1,1,1" depart="0" departLane="0" departPos="66" departSpeed="0" id="human_13" route="routeleft2_0" type="human"/>
  <vehicle color="1,1,1" depart="0" departLane="0" departPos="76" departSpeed="0" id="human_14" route="routeright0_0" type="human"/>
  <vehicle color="1,1,1" depart="0" departLane="0" departPos="76" departSpeed="0" id="human_15" route="routeleft2_0" type="human"/>
  <vehicle color="1,1,1" depart="0" departLane="0" departPos="86" departSpeed="0" id="human_16" route="routeright0_0" type="human"/>
  <vehicle color="1,1,1" depart="0" departLane="0" departPos="86" departSpeed="0" id="human_17" route="routeleft2_0" type="human"/>
  <vehicle color="1,1,1" depart="0" departLane="0" departPos="96" departSpeed="0" id="human_18" route="routeright0_0" type="human"/>
  <vehicle color="1,1,1" depart="0" departLane="0" departPos="96" departSpeed="0" id="human_19" route="routeleft2_0" type="human"/>
  <vehicle color="1,1,1" depart="0" departLane="0" departPos="106" departSpeed="0" id="human_20" route="routeright0_0" type="human"/>
  <vehicle color="1,1,1" depart="0" departLane="0" departPos="106" departSpeed="0" id="human_21" route="routeleft2_0" type="human"/>
  <vehicle color="1,1,1" depart="0" departLane="0" departPos="116" departSpeed="0" id="human_22" route="routeright0_0" type="human"/>
  <vehicle color="1,1,1" depart="0" departLane="0" departPos="116" departSpeed="0" id="human_23" route="routeleft2_0" type="human"/>
  <vehicle color="1,1,1" depart="0" departLane="0" departPos="126" departSpeed="0" id="human_24" route="routeright0_0" type="human"/>
  <vehicle color="1,1,1" depart="0" departLane="0" departPos="126" departSpeed="0" id="human_25" route="routeleft2_0" type="human"/>
  <vehicle color="1,1,1" depart="0" departLane="0" departPos="136" departSpeed="0" id="human_26" route="routeright0_0" type="human"/>
  <vehicle color="1,1,1" depart="0" departLane="0" departPos="136" departSpeed="0" id="human_27" route="routeleft2_0" type="human"/>
  <vehicle color="1,1,1" depart="0" departLane="0" departPos="146" departSpeed="0" id="human_28" route="routeright0_0" type="human"/>
  <vehicle color="1,1,1" depart="0" departLane="0" departPos="146" departSpeed="0" id="human_29" route="routeleft2_0" type="human"/>
  <vehicle color="1,1,1" depart="0" departLane="0" departPos="156" departSpeed="0" id="human_30" route="routeright0_0" type="human"/>
  <vehicle color="1,1,1" depart="0" departLane="0" departPos="156" departSpeed="0" id="human_31" route="routeleft2_0" type="human"/>
  <vehicle color="1,1,1" depart="0" departLane="0" departPos="166" departSpeed="0" id="human_32" route="routeright0_0" type="human"/>
  <vehicle color="1,1,1" depart="0" departLane="0" departPos="166" departSpeed="0" id="human_33" route="routeleft2_0" type="human"/>
  <vehicle color="1,1,1" depart="0" departLane="0" departPos="176" departSpeed="0" id="human_34" route="routeright0_0" type="human"/>
  <vehicle color="1,1,1" depart="0" departLane="0" departPos="176" departSpeed="0" id="human_35" route="routeleft2_0" type="human"/>
  <vehicle color="1,1,1" depart="0" departLane="0" departPos="186" departSpeed="0" id="human_36" route="routeright0_0" type="human"/>
  <vehicle color="1,1,1" depart="0" departLane="0" departPos="186" departSpeed="0" id="human_37" route="routeleft2_0" type="human"/>
  <vehicle color="1,1,1" depart="0" departLane="0" departPos="196" departSpeed="0" id="human_38" route="routeright0_0" type="human"/>
  <vehicle color="1,1,1" depart="0" departLane="0" departPos="196" departSpeed="0" id="human_39" route="routeleft2_0" type="human"/>
  <vehicle color="1,1,1" depart="0" departLane="0" departPos="6" departSpeed="0" id="human_40" route="routeright0_1" type="human"/>
  <vehicle color="1,1,1" depart="0" departLane="0" departPos="6" departSpeed="0" id="human_41" route="routeleft2_1" type="human"/>
  <vehicle color="1,1,1" depart="0" departLane="0" departPos="16" departSpeed="0" id="human_42" route="routeright0_1" type="human"/>
  <vehicle color="1,1,1" depart="0" departLane="0" departPos="16" departSpeed="0" id="human_43" route="routeleft2_1" type="human"/>
  <vehicle color="1,1,1" depart="0" departLane="0" departPos="26" departSpeed="0" id="human_44" route="routeright0_1" type="human"/>
  <vehicle color="1,1,1" depart="0" departLane="0" departPos="26" departSpeed="0" id="human_45" route="routeleft2_1" type="human"/>
  <vehicle color="1,1,1" depart="0" departLane="0" departPos="36" departSpeed="0" id="human_46" route="routeright0_1" type="human"/>
  <vehicle color="1,1,1" depart="0" departLane="0" departPos="36" departSpeed="0" id="human_47" route="routeleft2_1" type="human"/>
  <vehicle color="1,1,1" depart="0" departLane="0" departPos="46" departSpeed="0" id="human_48" route="routeright0_1" type="human"/>
  <vehicle color="1,1,1" depart="0" departLane="0" departPos="46" departSpeed="0" id="human_49" route="routeleft2_1" type="human"/>
  <vehicle color="1,1,1" depart="0" departLane="0" departPos="56" departSpeed="0" id="human_50" route="routeright0_1" type="human"/>
  <vehicle color="1,1,1" depart="0" departLane="0" departPos="56" departSpeed="0" id="human_51" route="routeleft2_1" type="human"/>
  <vehicle color="1,1,1" depart="0" departLane="0" departPos="66" departSpeed="0" id="human_52" route="routeright0_1" type="human"/>
  <vehicle color="1,1,1" depart="0" departLane="0" departPos="66" departSpeed="0" id="human_53" route="routeleft2_1" type="human"/>
  <vehicle color="1,1,1" depart="0" departLane="0" departPos="76" departSpeed="0" id="human_54" route="routeright0_1" type="human"/>
  <vehicle color="1,1,1" depart="0" departLane="0" departPos="76" departSpeed="0" id="human_55" route="routeleft2_1" type="human"/>
  <vehicle color="1,1,1" depart="0" departLane="0" departPos="86" departSpeed="0" id="human_56" route="routeright0_1" type="human"/>
  <vehicle color="1,1,1" depart="0" departLane="0" departPos="86" departSpeed="0" id="human_57" route="routeleft2_1" type="human"/>
  <vehicle color="1,1,1" depart="0" departLane="0" departPos="96" departSpeed="0" id="human_58" route="routeright0_1" type="human"/>
  <vehicle color="1,1,1" depart="0" departLane="0" departPos="96" departSpeed="0" id="human_59" route="routeleft2_1" type="human"/>
  <vehicle color="1,1,1" depart="0" departLane="0" departPos="106" departSpeed="0" id="human_60" route="routeright0_1" type="human"/>
  <vehicle color="1,1,1" depart="0" departLane="0" departPos="106" departSpeed="0" id="human_61" route="routeleft2_1" type="human"/>
  <vehicle color="1,1,1" depart="0" departLane="0" departPos="116" departSpeed="0" id="human_62" route="routeright0_1" type="human"/>
  <vehicle color="1,1,1" depart="0" departLane="0" departPos="116" departSpeed="0" id="human_63" route="routeleft2_1" type="human"/>
  <vehicle color="1,1,1" depart="0" departLane="0" departPos="126" departSpeed="0" id="human_64" route="routeright0_1" type="human"/>
  <vehicle color="1,1,1" depart="0" departLane="0" departPos="126" departSpeed="0" id="human_65" route="routeleft2_1" type="human"/>
  <vehicle color="1,1,1" depart="0" departLane="0" departPos="136" departSpeed="0" id="human_66" route="routeright0_1" type="human"/>
  <vehicle color="1,1,1" depart="0" departLane="0" departPos="136" departSpeed="0" id="human_67" route="routeleft2_1" type="human"/>
  <vehicle color="1,1,1" depart="0" departLane="0" departPos="146" departSpeed="0" id="human_68" route="routeright0_1" type="human"/>
  <vehicle color="1,1,1" depart="0" departLane="0" departPos="146" departSpeed="0" id="human_69" route="routeleft2_1" type="human"/>
  <vehicle color="1,1,1" depart="0" departLane="0" departPos="156" departSpeed="0" id="human_70" route="routeright0_1" type="human"/>
  <vehicle color="1,1,1" depart="0" departLane="0" departPos="156" departSpeed="0" id="human_71" route="routeleft2_1" type="human"/>
  <vehicle color="1,1,1" depart="0" departLane="0" departPos="166" departSpeed="0" id="human_72" route="routeright0_1" type="human"/>
  <vehicle color="1,1,1" depart="0" departLane="0" departPos="166" departSpeed="0" id="human_73" route="routeleft2_1" type="human"/>
  <vehicle color="1,1,1" depart="0" departLane="0" departPos="176" departSpeed="0" id="human_74" route="routeright0_1" type="human"/>
  <vehicle color="1,1,1" depart="0" departLane="0" departPos="176" departSpeed="0" id="human_75" route="routeleft2_1" type="human"/>
  <vehicle color="1,1,1" depart="0" departLane="0" departPos="186" departSpeed="0" id="human_76" route="routeright0_1" type="human"/>
  <vehicle color="1,1,1" depart="0" departLane="0" departPos="186" departSpeed="0" id="human_77" route="routeleft2_1" type="human"/>
  <vehicle color="1,1,1" depart="0" departLane="0" departPos="196" departSpeed="0" id="human_78" route="routeright0_1" type="human"/>
  <vehicle color="1,1,1" depart="0" departLane="0" departPos="196" departSpeed="0" id="human_79" route="routeleft2_1" type="human"/>
  <vehicle color="1,1,1" depart="0" departLane="0" departPos="6" departSpeed="0" id="human_80" route="routeright0_2" type="human"/>
  <vehicle color="1,1,1" depart="0" departLane="0" departPos="6" departSpeed="0" id="human_81" route="routeleft2_2" type="human"/>
  <vehicle color="1,1,1" depart="0" departLane="0" departPos="16" departSpeed="0" id="human_82" route="routeright0_2" type="human"/>
  <vehicle color="1,1,1" depart="0" departLane="0" departPos="16" departSpeed="0" id="human_83" route="routeleft2_2" type="human"/>
  <vehicle color="1,1,1" depart="0" departLane="0" departPos="26" departSpeed="0" id="human_84" route="routeright0_2" type="human"/>
  <vehicle color="1,1,1" depart="0" departLane="0" departPos="26" departSpeed="0" id="human_85" route="routeleft2_2" type="human"/>
  <vehicle color="1,1,1" depart="0" departLane="0" departPos="36" departSpeed="0" id="human_86" route="routeright0_2" type="human"/>
  <vehicle color="1,1,1" depart="0" departLane="0" departPos="36" departSpeed="0" id="human_87" route="routeleft2_2" type="human"/>
  <vehicle color="1,1,1" depart="0" departLane="0" departPos="46" departSpeed="0" id="human_88" route="routeright0_2" type="human"/>
  <vehicle color="1,1,1" depart="0" departLane="0" departPos="46" departSpeed="0" id="human_89" route="routeleft2_2" type="human"/>
  <vehicle color="1,1,1" depart="0" departLane="0" departPos="56" departSpeed="0" id="human_90" route="routeright0_2" type="human"/>
  <vehicle color="1,1,1" depart="0" departLane="0" departPos="56" departSpeed="0" id="human_91" route="routeleft2_2" type="human"/>
  <vehicle color="1,1,1" depart="0" departLane="0" departPos="66" departSpeed="0" id="human_92" route="routeright0_2" type="human"/>
  <vehicle color="1,1,1" depart="0" departLane="0" departPos="66" departSpeed="0" id="human_93" route="routeleft2_2" type="human"/>
  <vehicle color="1,1,1" depart="0" departLane="0" departPos="76" departSpeed="0" id="human_94" route="routeright0_2" type="human"/>
  <vehicle color="1,1,1" depart="0" departLane="0" departPos="76" departSpeed="0" id="human_95" route="routeleft2_2" type="human"/>
  <vehicle color="1,1,1" depart="0" departLane="0" departPos="86" departSpeed="0" id="human_96" route="routeright0_2" type="human"/>
  <vehicle color="1,1,1" depart="0" departLane="0" departPos="86" departSpeed="0" id="human_97" route="routeleft2_2" type="human"/>
  <vehicle color="1,1,1" depart="0" departLane="0" departPos="96" departSpeed="0" id="human_98" route="routeright0_2" type="human"/>
  <vehicle color="1,1,1" depart="0" departLane="0" departPos="96" departSpeed="0" id="human_99" route="routeleft2_2" type="human"/>
  <vehicle color="1,1,1" depart="0" departLane="0" departPos="106" departSpeed="0" id="human_100" route="routeright0_2" type="human"/>
  <vehicle color="1,1,1" depart="0" departLane="0" departPos="106" departSpeed="0" id="human_101" route="routeleft2_2" type="human"/>
  <vehicle color="1,1,1" depart="0" departLane="0" departPos="116" departSpeed="0" id="human_102" route="routeright0_2" type="human"/>
  <vehicle color="1,1,1" depart="0" departLane="0" departPos="116" departSpeed="0" id="human_103" route="routeleft2_2" type="human"/>
  <vehicle color="1,1,1" depart="0" departLane="0" departPos="126" departSpeed="0" id="human_104" route="routeright0_2" type="human"/>
  <vehicle color="1,1,1" depart="0" departLane="0" departPos="126" departSpeed="0" id="human_105" route="routeleft2_2" type="human"/>
  <vehicle color="1,1,1" depart="0" departLane="0" departPos="136" departSpeed="0" id="human_106" route="routeright0_2" type="human"/>
  <vehicle color="1,1,1" depart="0" departLane="0" departPos="136" departSpeed="0" id="human_107" route="routeleft2_2" type="human"/>
  <vehicle color="1,1,1" depart="0" departLane="0" departPos="146" departSpeed="0" id="human_108" route="routeright0_2" type="human"/>
  <vehicle color="1,1,1" depart="0" departLane="0" departPos="146" departSpeed="0" id="human_109" route="routeleft2_2" type="human"/>
  <vehicle color="1,1,1" depart="0" departLane="0" departPos="156" departSpeed="0" id="human_110" route="routeright0_2" type="human"/>
  <vehicle color="1,1,1" depart="0" departLane="0" departPos="156" departSpeed="0" id="human_111" route="routeleft2_2" type="human"/>
  <vehicle color="1,1,1" depart="0" departLane="0" departPos="166" departSpeed="0" id="human_112" route="routeright0_2" type="human"/>
  <vehicle color="1,1,1" depart="0" departLane="0" departPos="166" departSpeed="0" id="human_113" route="routeleft2_2" type="human"/>
  <vehicle color="1,1,1" depart="0" departLane="0" departPos="176" departSpeed="0" id="human_114" route="routeright0_2" type="human"/>
  <vehicle color="1,1,1" depart="0" departLane="0" departPos="176" departSpeed="0" id="human_115" route="routeleft2_2" type="human"/>
  <vehicle color="1,1,1" depart="0" departLane="0" departPos="186" departSpeed="0" id="human_116" route="routeright0_2" type="human"/>
  <vehicle color="1,1,1" depart="0" departLane="0" departPos="186" departSpeed="0" id="human_117" route="routeleft2_2" type="human"/>
  <vehicle color="1,1,1" depart="0" departLane="0" departPos="196" departSpeed="0" id="human_118" route="routeright0_2" type="human"/>
  <vehicle color="1,1,1" depart="0" departLane="0" departPos="196" departSpeed="0" id="human_119" route="routeleft2_2" type="human"/>
  <vehicle color="1,1,1" depart="0" departLane="0" departPos="6" departSpeed="0" id="human_120" route="routebot0_0" type="human"/>
  <vehicle color="1,1,1" depart="0" departLane="0" departPos="6" departSpeed="0" id="human_121" route="routetop0_3" type="human"/>
  <vehicle color="1,1,1" depart="0" departLane="0" departPos="16" departSpeed="0" id="human_122" route="routebot0_0" type="human"/>
  <vehicle color="1,1,1" depart="0" departLane="0" departPos="16" departSpeed="0" id="human_123" route="routetop0_3" type="human"/>
  <vehicle color="1,1,1" depart="0" departLane="0" departPos="26" departSpeed="0" id="human_124" route="routebot0_0" type="human"/>
  <vehicle color="1,1,1" depart="0" departLane="0" departPos="26" departSpeed="0" id="human_125" route="routetop0_3" type="human"/>
  <vehicle color="1,1,1" depart="0" departLane="0" departPos="36" departSpeed="0" id="human_126" route="routebot0_0" type="human"/>
  <vehicle color="1,1,1" depart="0" departLane="0" departPos="36" departSpeed="0" id="human_127" route="routetop0_3" type="human"/>
  <vehicle color="1,1,1" depart="0" departLane="0" departPos="46" departSpeed="0" id="human_128" route="routebot0_0" type="human"/>
  <vehicle color="1,1,1" depart="0" departLane="0" departPos="46" departSpeed="0" id="human_129" route="routetop0_3" type="human"/>
  <vehicle color="1,1,1" depart="0" departLane="0" departPos="56" departSpeed="0" id="human_130" route="routebot0_0" type="human"/>
  <vehicle color="1,1,1" depart="0" departLane="0" departPos="56" departSpeed="0" id="human_131" route="routetop0_3" type="human"/>
  <vehicle color="1,1,1" depart="0" departLane="0" departPos="66" departSpeed="0" id="human_132" route="routebot0_0" type="human"/>
  <vehicle color="1,1,1" depart="0" departLane="0" departPos="66" departSpeed="0" id="human_133" route="routetop0_3" type="human"/>
  <vehicle color="1,1,1" depart="0" departLane="0" departPos="76" departSpeed="0" id="human_134" route="routebot0_0" type="human"/>
  <vehicle color="1,1,1" depart="0" departLane="0" departPos="76" departSpeed="0" id="human_135" route="routetop0_3" type="human"/>
  <vehicle color="1,1,1" depart="0" departLane="0" departPos="86" departSpeed="0" id="human_136" route="routebot0_0" type="human"/>
  <vehicle color="1,1,1" depart="0" departLane="0" departPos="86" departSpeed="0" id="human_137" route="routetop0_3" type="human"/>
  <vehicle color="1,1,1" depart="0" departLane="0" departPos="96" departSpeed="0" id="human_138" route="routebot0_0" type="human"/>
  <vehicle color="1,1,1" depart="0" departLane="0" departPos="96" departSpeed="0" id="human_139" route="routetop0_3" type="human"/>
  <vehicle color="1,1,1" depart="0" departLane="0" departPos="106" departSpeed="0" id="human_140" route="routebot0_0" type="human"/>
  <vehicle color="1,1,1" depart="0" departLane="0" departPos="106" departSpeed="0" id="human_141" route="routetop0_3" type="human"/>
  <vehicle color="1,1,1" depart="0" departLane="0" departPos="116" departSpeed="0" id="human_142" route="routebot0_0" type="human"/>
  <vehicle color="1,1,1" depart="0" departLane="0" departPos="116" departSpeed="0" id="human_143" route="routetop0_3" type="human"/>
  <vehicle color="1,1,1" depart="0" departLane="0" departPos="126" departSpeed="0" id="human_144" route="routebot0_0" type="human"/>
  <vehicle color="1,1,1" depart="0" departLane="0" departPos="126" departSpeed="0" id="human_145" route="routetop0_3" type="human"/>
  <vehicle color="1,1,1" depart="0" departLane="0" departPos="136" departSpeed="0" id="human_146" route="routebot0_0" type="human"/>
  <vehicle color="1,1,1" depart="0" departLane="0" departPos="136" departSpeed="0" id="human_147" route="routetop0_3" type="human"/>
  <vehicle color="1,1,1" depart="0" departLane="0" departPos="146" departSpeed="0" id="human_148" route="routebot0_0" type="human"/>
  <vehicle color="1,1,1" depart="0" departLane="0" departPos="146" departSpeed="0" id="human_149" route="routetop0_3" type="human"/>
  <vehicle color="1,1,1" depart="0" departLane="0" departPos="156" departSpeed="0" id="human_150" route="routebot0_0" type="human"/>
  <vehicle color="1,1,1" depart="0" departLane="0" departPos="156" departSpeed="0" id="human_151" route="routetop0_3" type="human"/>
  <vehicle color="1,1,1" depart="0" departLane="0" departPos="166" departSpeed="0" id="human_152" route="routebot0_0" type="human"/>
  <vehicle color="1,1,1" depart="0" departLane="0" departPos="166" departSpeed="0" id="human_153" route="routetop0_3" type="human"/>
  <vehicle color="1,1,1" depart="0" departLane="0" departPos="176" departSpeed="0" id="human_154" route="routebot0_0" type="human"/>
  <vehicle color="1,1,1" depart="0" departLane="0" departPos="176" departSpeed="0" id="human_155" route="routetop0_3" type="human"/>
  <vehicle color="1,1,1" depart="0" departLane="0" departPos="186" departSpeed="0" id="human_156" route="routebot0_0" type="human"/>
  <vehicle color="1,1,1" depart="0" departLane="0" departPos="186" departSpeed="0" id="human_157" route="routetop0_3" type="human"/>
  <vehicle color="1,1,1" depart="0" departLane="0" departPos="196" departSpeed="0" id="human_158" route="routebot0_0" type="human"/>
  <vehicle color="1,1,1" depart="0" departLane="0" departPos="196" departSpeed="0" id="human_159" route="routetop0_3" type="human"/>
  <vehicle color="1,1,1" depart="0" departLane="0" departPos="6" departSpeed="0" id="human_160" route="routebot1_0" type="human"/>
  <vehicle color="1,1,1" depart="0" departLane="0" departPos="6" departSpeed="0" id="human_161" route="routetop1_3" type="human"/>
  <vehicle color="1,1,1" depart="0" departLane="0" departPos="16" departSpeed="0" id="human_162" route="routebot1_0" type="human"/>
  <vehicle color="1,1,1" depart="0" departLane="0" departPos="16" departSpeed="0" id="human_163" route="routetop1_3" type="human"/>
  <vehicle color="1,1,1" depart="0" departLane="0" departPos="26" departSpeed="0" id="human_164" route="routebot1_0" type="human"/>
  <vehicle color="1,1,1" depart="0" departLane="0" departPos="26" departSpeed="0" id="human_165" route="routetop1_3" type="human"/>
  <vehicle color="1,1,1" depart="0" departLane="0" departPos="36" departSpeed="0" id="human_166" route="routebot1_0" type="human"/>
  <vehicle color="1,1,1" depart="0" departLane="0" departPos="36" departSpeed="0" id="human_167" route="routetop1_3" type="human"/>
  <vehicle color="1,1,1" depart="0" departLane="0" departPos="46" departSpeed="0" id="human_168" route="routebot1_0" type="human"/>
  <vehicle color="1,1,1" depart="0" departLane="0" departPos="46" departSpeed="0" id="human_169" route="routetop1_3" type="human"/>
  <vehicle color="1,1,1" depart="0" departLane="0" departPos="56" departSpeed="0" id="human_170" route="routebot1_0" type="human"/>
  <vehicle color="1,1,1" depart="0" departLane="0" departPos="56" departSpeed="0" id="human_171" route="routetop1_3" type="human"/>
  <vehicle color="1,1,1" depart="0" departLane="0" departPos="66" departSpeed="0" id="human_172" route="routebot1_0" type="human"/>
  <vehicle color="1,1,1" depart="0" departLane="0" departPos="66" departSpeed="0" id="human_173" route="routetop1_3" type="human"/>
  <vehicle color="1,1,1" depart="0" departLane="0" departPos="76" departSpeed="0" id="human_174" route="routebot1_0" type="human"/>
  <vehicle color="1,1,1" depart="0" departLane="0" departPos="76" departSpeed="0" id="human_175" route="routetop1_3" type="human"/>
  <vehicle color="1,1,1" depart="0" departLane="0" departPos="86" departSpeed="0" id="human_176" route="routebot1_0" type="human"/>
  <vehicle color="1,1,1" depart="0" departLane="0" departPos="86" departSpeed="0" id="human_177" route="routetop1_3" type="human"/>
  <vehicle color="1,1,1" depart="0" departLane="0" departPos="96" departSpeed="0" id="human_178" route="routebot1_0" type="human"/>
  <vehicle color="1,1,1" depart="0" departLane="0" departPos="96" departSpeed="0" id="human_179" route="routetop1_3" type="human"/>
  <vehicle color="1,1,1" depart="0" departLane="0" departPos="106" departSpeed="0" id="human_180" route="routebot1_0" type="human"/>
  <vehicle color="1,1,1" depart="0" departLane="0" departPos="106" departSpeed="0" id="human_181" route="routetop1_3" type="human"/>
  <vehicle color="1,1,1" depart="0" departLane="0" departPos="116" departSpeed="0" id="human_182" route="routebot1_0" type="human"/>
  <vehicle color="1,1,1" depart="0" departLane="0" departPos="116" departSpeed="0" id="human_183" route="routetop1_3" type="human"/>
  <vehicle color="1,1,1" depart="0" departLane="0" departPos="126" departSpeed="0" id="human_184" route="routebot1_0" type="human"/>
  <vehicle color="1,1,1" depart="0" departLane="0" departPos="126" departSpeed="0" id="human_185" route="routetop1_3" type="human"/>
  <vehicle color="1,1,1" depart="0" departLane="0" departPos="136" departSpeed="0" id="human_186" route="routebot1_0" type="human"/>
  <vehicle color="1,1,1" depart="0" departLane="0" departPos="136" departSpeed="0" id="human_187" route="routetop1_3" type="human"/>
  <vehicle color="1,1,1" depart="0" departLane="0" departPos="146" departSpeed="0" id="human_188" route="routebot1_0" type="human"/>
  <vehicle color="1,1,1" depart="0" departLane="0" departPos="146" departSpeed="0" id="human_189" route="routetop1_3" type="human"/>
  <vehicle color="1,1,1" depart="0" departLane="0" departPos="156" departSpeed="0" id="human_190" route="routebot1_0" type="human"/>
  <vehicle color="1,1,1" depart="0" departLane="0" departPos="156" departSpeed="0" id="human_191" route="routetop1_3" type="human"/>
  <vehicle color="1,1,1" depart="0" departLane="0" departPos="166" departSpeed="0" id="human_192" route="routebot1_0" type="human"/>
  <vehicle color="1,1,1" depart="0" departLane="0" departPos="166" departSpeed="0" id="human_193" route="routetop1_3" type="human"/>
  <vehicle color="1,1,1" depart="0" departLane="0" departPos="176" departSpeed="0" id="human_194" route="routebot1_0" type="human"/>
  <vehicle color="1,1,1" depart="0" departLane="0" departPos="176" departSpeed="0" id="human_195" route="routetop1_3" type="human"/>
  <vehicle color="1,1,1" depart="0" departLane="0" departPos="186" departSpeed="0" id="human_196" route="routebot1_0" type="human"/>
  <vehicle color="1,1,1" depart="0" departLane="0" departPos="186" departSpeed="0" id="human_197" route="routetop1_3" type="human"/>
  <vehicle color="1,1,1" depart="0" departLane="0" departPos="196" departSpeed="0" id="human_198" route="routebot1_0" type="human"/>
  <vehicle color="1,1,1" depart="0" departLane="0" departPos="196" departSpeed="0" id="human_199" route="routetop1_3" type="human"/>
</routes>
