<?xml version="1.0" encoding="UTF-8"?>

<!-- generated on 2024-05-28 01:58:48 by Eclipse SUMO netconvert Version UNKNOWN
<configuration xmlns:xsi="http://www.w3.org/2001/XMLSchema-instance" xsi:noNamespaceSchemaLocation="http://sumo.dlr.de/xsd/netconvertConfiguration.xsd">

    <input>
        <node-files value="/home/yao/flow/flow/core/debug/net/grid-intersection_20240528-0158481716832728.4232392.nod.xml"/>
        <edge-files value="/home/yao/flow/flow/core/debug/net/grid-intersection_20240528-0158481716832728.4232392.edg.xml"/>
        <type-files value="/home/yao/flow/flow/core/debug/net/grid-intersection_20240528-0158481716832728.4232392.typ.xml"/>
    </input>

    <output>
        <output-file value="/home/yao/flow/flow/core/debug/cfg/grid-intersection_20240528-0158481716832728.4232392.net.xml"/>
    </output>

    <junctions>
        <no-internal-links value="false"/>
        <no-turnarounds value="true"/>
    </junctions>

</configuration>
-->

<net version="1.20" junctionCornerDetail="5" limitTurnSpeed="5.50" xmlns:xsi="http://www.w3.org/2001/XMLSchema-instance" xsi:noNamespaceSchemaLocation="http://sumo.dlr.de/xsd/net_file.xsd">

    <location netOffset="500.00,500.00" convBoundary="0.00,0.00,1600.00,1300.00" origBoundary="-500.00,-500.00,1100.00,800.00" projParameter="!"/>

    <type id="horizontal" numLanes="1" speed="35.00"/>
    <type id="vertical" numLanes="1" speed="35.00"/>

    <edge id=":center0_0" function="internal">
        <lane id=":center0_0_0" index="0" speed="6.51" length="9.03" shape="498.40,507.20 498.05,504.75 497.00,503.00 495.25,501.95 492.80,501.60"/>
    </edge>
    <edge id=":center0_1" function="internal">
        <lane id=":center0_1_0" index="0" speed="35.00" length="14.40" shape="498.40,507.20 498.40,492.80"/>
    </edge>
    <edge id=":center0_2" function="internal">
        <lane id=":center0_2_0" index="0" speed="8.00" length="4.07" shape="498.40,507.20 498.95,503.35 499.04,503.20"/>
    </edge>
    <edge id=":center0_12" function="internal">
        <lane id=":center0_12_0" index="0" speed="8.00" length="10.13" shape="499.04,503.20 500.60,500.60 503.35,498.95 507.20,498.40"/>
    </edge>
    <edge id=":center0_3" function="internal">
        <lane id=":center0_3_0" index="0" speed="6.51" length="9.03" shape="507.20,501.60 504.75,501.95 503.00,503.00 501.95,504.75 501.60,507.20"/>
    </edge>
    <edge id=":center0_4" function="internal">
        <lane id=":center0_4_0" index="0" speed="35.00" length="14.40" shape="507.20,501.60 492.80,501.60"/>
    </edge>
    <edge id=":center0_5" function="internal">
        <lane id=":center0_5_0" index="0" speed="8.00" length="4.07" shape="507.20,501.60 503.35,501.05 503.20,500.96"/>
    </edge>
    <edge id=":center0_13" function="internal">
        <lane id=":center0_13_0" index="0" speed="8.00" length="10.13" shape="503.20,500.96 500.60,499.40 498.95,496.65 498.40,492.80"/>
    </edge>
    <edge id=":center0_6" function="internal">
        <lane id=":center0_6_0" index="0" speed="6.51" length="9.03" shape="501.60,492.80 501.95,495.25 503.00,497.00 504.75,498.05 507.20,498.40"/>
    </edge>
    <edge id=":center0_7" function="internal">
        <lane id=":center0_7_0" index="0" speed="35.00" length="14.40" shape="501.60,492.80 501.60,507.20"/>
    </edge>
    <edge id=":center0_8" function="internal">
        <lane id=":center0_8_0" index="0" speed="8.00" length="4.07" shape="501.60,492.80 501.05,496.65 500.96,496.80"/>
    </edge>
    <edge id=":center0_14" function="internal">
        <lane id=":center0_14_0" index="0" speed="8.00" length="10.13" shape="500.96,496.80 499.40,499.40 496.65,501.05 492.80,501.60"/>
    </edge>
    <edge id=":center0_9" function="internal">
        <lane id=":center0_9_0" index="0" speed="6.51" length="9.03" shape="492.80,498.40 495.25,498.05 497.00,497.00 498.05,495.25 498.40,492.80"/>
    </edge>
    <edge id=":center0_10" function="internal">
        <lane id=":center0_10_0" index="0" speed="35.00" length="14.40" shape="492.80,498.40 507.20,498.40"/>
    </edge>
    <edge id=":center0_11" function="internal">
        <lane id=":center0_11_0" index="0" speed="8.00" length="4.07" shape="492.80,498.40 496.65,498.95 496.80,499.04"/>
    </edge>
    <edge id=":center0_15" function="internal">
        <lane id=":center0_15_0" index="0" speed="8.00" length="10.13" shape="496.80,499.04 499.40,500.60 501.05,503.35 501.60,507.20"/>
    </edge>
    <edge id=":center1_0" function="internal">
        <lane id=":center1_0_0" index="0" speed="6.51" length="9.03" shape="798.40,507.20 798.05,504.75 797.00,503.00 795.25,501.95 792.80,501.60"/>
    </edge>
    <edge id=":center1_1" function="internal">
        <lane id=":center1_1_0" index="0" speed="35.00" length="14.40" shape="798.40,507.20 798.40,492.80"/>
    </edge>
    <edge id=":center1_2" function="internal">
        <lane id=":center1_2_0" index="0" speed="8.00" length="4.07" shape="798.40,507.20 798.95,503.35 799.04,503.20"/>
    </edge>
    <edge id=":center1_12" function="internal">
        <lane id=":center1_12_0" index="0" speed="8.00" length="10.13" shape="799.04,503.20 800.60,500.60 803.35,498.95 807.20,498.40"/>
    </edge>
    <edge id=":center1_3" function="internal">
        <lane id=":center1_3_0" index="0" speed="6.51" length="9.03" shape="807.20,501.60 804.75,501.95 803.00,503.00 801.95,504.75 801.60,507.20"/>
    </edge>
    <edge id=":center1_4" function="internal">
        <lane id=":center1_4_0" index="0" speed="35.00" length="14.40" shape="807.20,501.60 792.80,501.60"/>
    </edge>
    <edge id=":center1_5" function="internal">
        <lane id=":center1_5_0" index="0" speed="8.00" length="4.07" shape="807.20,501.60 803.35,501.05 803.20,500.96"/>
    </edge>
    <edge id=":center1_13" function="internal">
        <lane id=":center1_13_0" index="0" speed="8.00" length="10.13" shape="803.20,500.96 800.60,499.40 798.95,496.65 798.40,492.80"/>
    </edge>
    <edge id=":center1_6" function="internal">
        <lane id=":center1_6_0" index="0" speed="6.51" length="9.03" shape="801.60,492.80 801.95,495.25 803.00,497.00 804.75,498.05 807.20,498.40"/>
    </edge>
    <edge id=":center1_7" function="internal">
        <lane id=":center1_7_0" index="0" speed="35.00" length="14.40" shape="801.60,492.80 801.60,507.20"/>
    </edge>
    <edge id=":center1_8" function="internal">
        <lane id=":center1_8_0" index="0" speed="8.00" length="4.07" shape="801.60,492.80 801.05,496.65 800.96,496.80"/>
    </edge>
    <edge id=":center1_14" function="internal">
        <lane id=":center1_14_0" index="0" speed="8.00" length="10.13" shape="800.96,496.80 799.40,499.40 796.65,501.05 792.80,501.60"/>
    </edge>
    <edge id=":center1_9" function="internal">
        <lane id=":center1_9_0" index="0" speed="6.51" length="9.03" shape="792.80,498.40 795.25,498.05 797.00,497.00 798.05,495.25 798.40,492.80"/>
    </edge>
    <edge id=":center1_10" function="internal">
        <lane id=":center1_10_0" index="0" speed="35.00" length="14.40" shape="792.80,498.40 807.20,498.40"/>
    </edge>
    <edge id=":center1_11" function="internal">
        <lane id=":center1_11_0" index="0" speed="8.00" length="4.07" shape="792.80,498.40 796.65,498.95 796.80,499.04"/>
    </edge>
    <edge id=":center1_15" function="internal">
        <lane id=":center1_15_0" index="0" speed="8.00" length="10.13" shape="796.80,499.04 799.40,500.60 801.05,503.35 801.60,507.20"/>
    </edge>
    <edge id=":center2_0" function="internal">
        <lane id=":center2_0_0" index="0" speed="6.51" length="9.03" shape="1098.40,507.20 1098.05,504.75 1097.00,503.00 1095.25,501.95 1092.80,501.60"/>
    </edge>
    <edge id=":center2_1" function="internal">
        <lane id=":center2_1_0" index="0" speed="35.00" length="14.40" shape="1098.40,507.20 1098.40,492.80"/>
    </edge>
    <edge id=":center2_2" function="internal">
        <lane id=":center2_2_0" index="0" speed="8.00" length="4.07" shape="1098.40,507.20 1098.95,503.35 1099.04,503.20"/>
    </edge>
    <edge id=":center2_12" function="internal">
        <lane id=":center2_12_0" index="0" speed="8.00" length="10.13" shape="1099.04,503.20 1100.60,500.60 1103.35,498.95 1107.20,498.40"/>
    </edge>
    <edge id=":center2_3" function="internal">
        <lane id=":center2_3_0" index="0" speed="6.51" length="9.03" shape="1107.20,501.60 1104.75,501.95 1103.00,503.00 1101.95,504.75 1101.60,507.20"/>
    </edge>
    <edge id=":center2_4" function="internal">
        <lane id=":center2_4_0" index="0" speed="35.00" length="14.40" shape="1107.20,501.60 1092.80,501.60"/>
    </edge>
    <edge id=":center2_5" function="internal">
        <lane id=":center2_5_0" index="0" speed="8.00" length="4.07" shape="1107.20,501.60 1103.35,501.05 1103.20,500.96"/>
    </edge>
    <edge id=":center2_13" function="internal">
        <lane id=":center2_13_0" index="0" speed="8.00" length="10.13" shape="1103.20,500.96 1100.60,499.40 1098.95,496.65 1098.40,492.80"/>
    </edge>
    <edge id=":center2_6" function="internal">
        <lane id=":center2_6_0" index="0" speed="6.51" length="9.03" shape="1101.60,492.80 1101.95,495.25 1103.00,497.00 1104.75,498.05 1107.20,498.40"/>
    </edge>
    <edge id=":center2_7" function="internal">
        <lane id=":center2_7_0" index="0" speed="35.00" length="14.40" shape="1101.60,492.80 1101.60,507.20"/>
    </edge>
    <edge id=":center2_8" function="internal">
        <lane id=":center2_8_0" index="0" speed="8.00" length="4.07" shape="1101.60,492.80 1101.05,496.65 1100.96,496.80"/>
    </edge>
    <edge id=":center2_14" function="internal">
        <lane id=":center2_14_0" index="0" speed="8.00" length="10.13" shape="1100.96,496.80 1099.40,499.40 1096.65,501.05 1092.80,501.60"/>
    </edge>
    <edge id=":center2_9" function="internal">
        <lane id=":center2_9_0" index="0" speed="6.51" length="9.03" shape="1092.80,498.40 1095.25,498.05 1097.00,497.00 1098.05,495.25 1098.40,492.80"/>
    </edge>
    <edge id=":center2_10" function="internal">
        <lane id=":center2_10_0" index="0" speed="35.00" length="14.40" shape="1092.80,498.40 1107.20,498.40"/>
    </edge>
    <edge id=":center2_11" function="internal">
        <lane id=":center2_11_0" index="0" speed="8.00" length="4.07" shape="1092.80,498.40 1096.65,498.95 1096.80,499.04"/>
    </edge>
    <edge id=":center2_15" function="internal">
        <lane id=":center2_15_0" index="0" speed="8.00" length="10.13" shape="1096.80,499.04 1099.40,500.60 1101.05,503.35 1101.60,507.20"/>
    </edge>
    <edge id=":center3_0" function="internal">
        <lane id=":center3_0_0" index="0" speed="6.51" length="9.03" shape="498.40,807.20 498.05,804.75 497.00,803.00 495.25,801.95 492.80,801.60"/>
    </edge>
    <edge id=":center3_1" function="internal">
        <lane id=":center3_1_0" index="0" speed="35.00" length="14.40" shape="498.40,807.20 498.40,792.80"/>
    </edge>
    <edge id=":center3_2" function="internal">
        <lane id=":center3_2_0" index="0" speed="8.00" length="4.07" shape="498.40,807.20 498.95,803.35 499.04,803.20"/>
    </edge>
    <edge id=":center3_12" function="internal">
        <lane id=":center3_12_0" index="0" speed="8.00" length="10.13" shape="499.04,803.20 500.60,800.60 503.35,798.95 507.20,798.40"/>
    </edge>
    <edge id=":center3_3" function="internal">
        <lane id=":center3_3_0" index="0" speed="6.51" length="9.03" shape="507.20,801.60 504.75,801.95 503.00,803.00 501.95,804.75 501.60,807.20"/>
    </edge>
    <edge id=":center3_4" function="internal">
        <lane id=":center3_4_0" index="0" speed="35.00" length="14.40" shape="507.20,801.60 492.80,801.60"/>
    </edge>
    <edge id=":center3_5" function="internal">
        <lane id=":center3_5_0" index="0" speed="8.00" length="4.07" shape="507.20,801.60 503.35,801.05 503.20,800.96"/>
    </edge>
    <edge id=":center3_13" function="internal">
        <lane id=":center3_13_0" index="0" speed="8.00" length="10.13" shape="503.20,800.96 500.60,799.40 498.95,796.65 498.40,792.80"/>
    </edge>
    <edge id=":center3_6" function="internal">
        <lane id=":center3_6_0" index="0" speed="6.51" length="9.03" shape="501.60,792.80 501.95,795.25 503.00,797.00 504.75,798.05 507.20,798.40"/>
    </edge>
    <edge id=":center3_7" function="internal">
        <lane id=":center3_7_0" index="0" speed="35.00" length="14.40" shape="501.60,792.80 501.60,807.20"/>
    </edge>
    <edge id=":center3_8" function="internal">
        <lane id=":center3_8_0" index="0" speed="8.00" length="4.07" shape="501.60,792.80 501.05,796.65 500.96,796.80"/>
    </edge>
    <edge id=":center3_14" function="internal">
        <lane id=":center3_14_0" index="0" speed="8.00" length="10.13" shape="500.96,796.80 499.40,799.40 496.65,801.05 492.80,801.60"/>
    </edge>
    <edge id=":center3_9" function="internal">
        <lane id=":center3_9_0" index="0" speed="6.51" length="9.03" shape="492.80,798.40 495.25,798.05 497.00,797.00 498.05,795.25 498.40,792.80"/>
    </edge>
    <edge id=":center3_10" function="internal">
        <lane id=":center3_10_0" index="0" speed="35.00" length="14.40" shape="492.80,798.40 507.20,798.40"/>
    </edge>
    <edge id=":center3_11" function="internal">
        <lane id=":center3_11_0" index="0" speed="8.00" length="4.07" shape="492.80,798.40 496.65,798.95 496.80,799.04"/>
    </edge>
    <edge id=":center3_15" function="internal">
        <lane id=":center3_15_0" index="0" speed="8.00" length="10.13" shape="496.80,799.04 499.40,800.60 501.05,803.35 501.60,807.20"/>
    </edge>
    <edge id=":center4_0" function="internal">
        <lane id=":center4_0_0" index="0" speed="6.51" length="9.03" shape="798.40,807.20 798.05,804.75 797.00,803.00 795.25,801.95 792.80,801.60"/>
    </edge>
    <edge id=":center4_1" function="internal">
        <lane id=":center4_1_0" index="0" speed="35.00" length="14.40" shape="798.40,807.20 798.40,792.80"/>
    </edge>
    <edge id=":center4_2" function="internal">
        <lane id=":center4_2_0" index="0" speed="8.00" length="4.07" shape="798.40,807.20 798.95,803.35 799.04,803.20"/>
    </edge>
    <edge id=":center4_12" function="internal">
        <lane id=":center4_12_0" index="0" speed="8.00" length="10.13" shape="799.04,803.20 800.60,800.60 803.35,798.95 807.20,798.40"/>
    </edge>
    <edge id=":center4_3" function="internal">
        <lane id=":center4_3_0" index="0" speed="6.51" length="9.03" shape="807.20,801.60 804.75,801.95 803.00,803.00 801.95,804.75 801.60,807.20"/>
    </edge>
    <edge id=":center4_4" function="internal">
        <lane id=":center4_4_0" index="0" speed="35.00" length="14.40" shape="807.20,801.60 792.80,801.60"/>
    </edge>
    <edge id=":center4_5" function="internal">
        <lane id=":center4_5_0" index="0" speed="8.00" length="4.07" shape="807.20,801.60 803.35,801.05 803.20,800.96"/>
    </edge>
    <edge id=":center4_13" function="internal">
        <lane id=":center4_13_0" index="0" speed="8.00" length="10.13" shape="803.20,800.96 800.60,799.40 798.95,796.65 798.40,792.80"/>
    </edge>
    <edge id=":center4_6" function="internal">
        <lane id=":center4_6_0" index="0" speed="6.51" length="9.03" shape="801.60,792.80 801.95,795.25 803.00,797.00 804.75,798.05 807.20,798.40"/>
    </edge>
    <edge id=":center4_7" function="internal">
        <lane id=":center4_7_0" index="0" speed="35.00" length="14.40" shape="801.60,792.80 801.60,807.20"/>
    </edge>
    <edge id=":center4_8" function="internal">
        <lane id=":center4_8_0" index="0" speed="8.00" length="4.07" shape="801.60,792.80 801.05,796.65 800.96,796.80"/>
    </edge>
    <edge id=":center4_14" function="internal">
        <lane id=":center4_14_0" index="0" speed="8.00" length="10.13" shape="800.96,796.80 799.40,799.40 796.65,801.05 792.80,801.60"/>
    </edge>
    <edge id=":center4_9" function="internal">
        <lane id=":center4_9_0" index="0" speed="6.51" length="9.03" shape="792.80,798.40 795.25,798.05 797.00,797.00 798.05,795.25 798.40,792.80"/>
    </edge>
    <edge id=":center4_10" function="internal">
        <lane id=":center4_10_0" index="0" speed="35.00" length="14.40" shape="792.80,798.40 807.20,798.40"/>
    </edge>
    <edge id=":center4_11" function="internal">
        <lane id=":center4_11_0" index="0" speed="8.00" length="4.07" shape="792.80,798.40 796.65,798.95 796.80,799.04"/>
    </edge>
    <edge id=":center4_15" function="internal">
        <lane id=":center4_15_0" index="0" speed="8.00" length="10.13" shape="796.80,799.04 799.40,800.60 801.05,803.35 801.60,807.20"/>
    </edge>
    <edge id=":center5_0" function="internal">
        <lane id=":center5_0_0" index="0" speed="6.51" length="9.03" shape="1098.40,807.20 1098.05,804.75 1097.00,803.00 1095.25,801.95 1092.80,801.60"/>
    </edge>
    <edge id=":center5_1" function="internal">
        <lane id=":center5_1_0" index="0" speed="35.00" length="14.40" shape="1098.40,807.20 1098.40,792.80"/>
    </edge>
    <edge id=":center5_2" function="internal">
        <lane id=":center5_2_0" index="0" speed="8.00" length="4.07" shape="1098.40,807.20 1098.95,803.35 1099.04,803.20"/>
    </edge>
    <edge id=":center5_12" function="internal">
        <lane id=":center5_12_0" index="0" speed="8.00" length="10.13" shape="1099.04,803.20 1100.60,800.60 1103.35,798.95 1107.20,798.40"/>
    </edge>
    <edge id=":center5_3" function="internal">
        <lane id=":center5_3_0" index="0" speed="6.51" length="9.03" shape="1107.20,801.60 1104.75,801.95 1103.00,803.00 1101.95,804.75 1101.60,807.20"/>
    </edge>
    <edge id=":center5_4" function="internal">
        <lane id=":center5_4_0" index="0" speed="35.00" length="14.40" shape="1107.20,801.60 1092.80,801.60"/>
    </edge>
    <edge id=":center5_5" function="internal">
        <lane id=":center5_5_0" index="0" speed="8.00" length="4.07" shape="1107.20,801.60 1103.35,801.05 1103.20,800.96"/>
    </edge>
    <edge id=":center5_13" function="internal">
        <lane id=":center5_13_0" index="0" speed="8.00" length="10.13" shape="1103.20,800.96 1100.60,799.40 1098.95,796.65 1098.40,792.80"/>
    </edge>
    <edge id=":center5_6" function="internal">
        <lane id=":center5_6_0" index="0" speed="6.51" length="9.03" shape="1101.60,792.80 1101.95,795.25 1103.00,797.00 1104.75,798.05 1107.20,798.40"/>
    </edge>
    <edge id=":center5_7" function="internal">
        <lane id=":center5_7_0" index="0" speed="35.00" length="14.40" shape="1101.60,792.80 1101.60,807.20"/>
    </edge>
    <edge id=":center5_8" function="internal">
        <lane id=":center5_8_0" index="0" speed="8.00" length="4.07" shape="1101.60,792.80 1101.05,796.65 1100.96,796.80"/>
    </edge>
    <edge id=":center5_14" function="internal">
        <lane id=":center5_14_0" index="0" speed="8.00" length="10.13" shape="1100.96,796.80 1099.40,799.40 1096.65,801.05 1092.80,801.60"/>
    </edge>
    <edge id=":center5_9" function="internal">
        <lane id=":center5_9_0" index="0" speed="6.51" length="9.03" shape="1092.80,798.40 1095.25,798.05 1097.00,797.00 1098.05,795.25 1098.40,792.80"/>
    </edge>
    <edge id=":center5_10" function="internal">
        <lane id=":center5_10_0" index="0" speed="35.00" length="14.40" shape="1092.80,798.40 1107.20,798.40"/>
    </edge>
    <edge id=":center5_11" function="internal">
        <lane id=":center5_11_0" index="0" speed="8.00" length="4.07" shape="1092.80,798.40 1096.65,798.95 1096.80,799.04"/>
    </edge>
    <edge id=":center5_15" function="internal">
        <lane id=":center5_15_0" index="0" speed="8.00" length="10.13" shape="1096.80,799.04 1099.40,800.60 1101.05,803.35 1101.60,807.20"/>
    </edge>

    <edge id="bot0_0" from="left_row_short0" to="center0" priority="78" type="horizontal" length="300.00">
        <lane id="bot0_0_0" index="0" speed="35.00" length="300.00" shape="200.00,498.40 492.80,498.40"/>
    </edge>
    <edge id="bot0_1" from="center0" to="center1" priority="78" type="horizontal" length="300.00">
        <lane id="bot0_1_0" index="0" speed="35.00" length="300.00" shape="507.20,498.40 792.80,498.40"/>
    </edge>
    <edge id="bot0_2" from="center1" to="center2" priority="78" type="horizontal" length="300.00">
        <lane id="bot0_2_0" index="0" speed="35.00" length="300.00" shape="807.20,498.40 1092.80,498.40"/>
    </edge>
    <edge id="bot0_3" from="center2" to="right_row_long0" priority="78" type="horizontal" length="500.00">
        <lane id="bot0_3_0" index="0" speed="35.00" length="500.00" shape="1107.20,498.40 1600.00,498.40"/>
    </edge>
    <edge id="bot1_0" from="left_row_short1" to="center3" priority="78" type="horizontal" length="300.00">
        <lane id="bot1_0_0" index="0" speed="35.00" length="300.00" shape="200.00,798.40 492.80,798.40"/>
    </edge>
    <edge id="bot1_1" from="center3" to="center4" priority="78" type="horizontal" length="300.00">
        <lane id="bot1_1_0" index="0" speed="35.00" length="300.00" shape="507.20,798.40 792.80,798.40"/>
    </edge>
    <edge id="bot1_2" from="center4" to="center5" priority="78" type="horizontal" length="300.00">
        <lane id="bot1_2_0" index="0" speed="35.00" length="300.00" shape="807.20,798.40 1092.80,798.40"/>
    </edge>
    <edge id="bot1_3" from="center5" to="right_row_long1" priority="78" type="horizontal" length="500.00">
        <lane id="bot1_3_0" index="0" speed="35.00" length="500.00" shape="1107.20,798.40 1600.00,798.40"/>
    </edge>
    <edge id="left0_0" from="center0" to="bot_col_long0" priority="78" type="vertical" length="500.00">
        <lane id="left0_0_0" index="0" speed="35.00" length="500.00" shape="498.40,492.80 498.40,0.00"/>
    </edge>
    <edge id="left0_1" from="center1" to="bot_col_long1" priority="78" type="vertical" length="500.00">
        <lane id="left0_1_0" index="0" speed="35.00" length="500.00" shape="798.40,492.80 798.40,0.00"/>
    </edge>
    <edge id="left0_2" from="center2" to="bot_col_long2" priority="78" type="vertical" length="500.00">
        <lane id="left0_2_0" index="0" speed="35.00" length="500.00" shape="1098.40,492.80 1098.40,0.00"/>
    </edge>
    <edge id="left1_0" from="center3" to="center0" priority="78" type="vertical" length="300.00">
        <lane id="left1_0_0" index="0" speed="35.00" length="300.00" shape="498.40,792.80 498.40,507.20"/>
    </edge>
    <edge id="left1_1" from="center4" to="center1" priority="78" type="vertical" length="300.00">
        <lane id="left1_1_0" index="0" speed="35.00" length="300.00" shape="798.40,792.80 798.40,507.20"/>
    </edge>
    <edge id="left1_2" from="center5" to="center2" priority="78" type="vertical" length="300.00">
        <lane id="left1_2_0" index="0" speed="35.00" length="300.00" shape="1098.40,792.80 1098.40,507.20"/>
    </edge>
    <edge id="left2_0" from="top_col_short0" to="center3" priority="78" type="vertical" length="300.00">
        <lane id="left2_0_0" index="0" speed="35.00" length="300.00" shape="498.40,1100.00 498.40,807.20"/>
    </edge>
    <edge id="left2_1" from="top_col_short1" to="center4" priority="78" type="vertical" length="300.00">
        <lane id="left2_1_0" index="0" speed="35.00" length="300.00" shape="798.40,1100.00 798.40,807.20"/>
    </edge>
    <edge id="left2_2" from="top_col_short2" to="center5" priority="78" type="vertical" length="300.00">
        <lane id="left2_2_0" index="0" speed="35.00" length="300.00" shape="1098.40,1100.00 1098.40,807.20"/>
    </edge>
    <edge id="right0_0" from="bot_col_short0" to="center0" priority="78" type="vertical" length="300.00">
        <lane id="right0_0_0" index="0" speed="35.00" length="300.00" shape="501.60,200.00 501.60,492.80"/>
    </edge>
    <edge id="right0_1" from="bot_col_short1" to="center1" priority="78" type="vertical" length="300.00">
        <lane id="right0_1_0" index="0" speed="35.00" length="300.00" shape="801.60,200.00 801.60,492.80"/>
    </edge>
    <edge id="right0_2" from="bot_col_short2" to="center2" priority="78" type="vertical" length="300.00">
        <lane id="right0_2_0" index="0" speed="35.00" length="300.00" shape="1101.60,200.00 1101.60,492.80"/>
    </edge>
    <edge id="right1_0" from="center0" to="center3" priority="78" type="vertical" length="300.00">
        <lane id="right1_0_0" index="0" speed="35.00" length="300.00" shape="501.60,507.20 501.60,792.80"/>
    </edge>
    <edge id="right1_1" from="center1" to="center4" priority="78" type="vertical" length="300.00">
        <lane id="right1_1_0" index="0" speed="35.00" length="300.00" shape="801.60,507.20 801.60,792.80"/>
    </edge>
    <edge id="right1_2" from="center2" to="center5" priority="78" type="vertical" length="300.00">
        <lane id="right1_2_0" index="0" speed="35.00" length="300.00" shape="1101.60,507.20 1101.60,792.80"/>
    </edge>
    <edge id="right2_0" from="center3" to="top_col_long0" priority="78" type="vertical" length="500.00">
        <lane id="right2_0_0" index="0" speed="35.00" length="500.00" shape="501.60,807.20 501.60,1300.00"/>
    </edge>
    <edge id="right2_1" from="center4" to="top_col_long1" priority="78" type="vertical" length="500.00">
        <lane id="right2_1_0" index="0" speed="35.00" length="500.00" shape="801.60,807.20 801.60,1300.00"/>
    </edge>
    <edge id="right2_2" from="center5" to="top_col_long2" priority="78" type="vertical" length="500.00">
        <lane id="right2_2_0" index="0" speed="35.00" length="500.00" shape="1101.60,807.20 1101.60,1300.00"/>
    </edge>
    <edge id="top0_0" from="center0" to="left_row_long0" priority="78" type="horizontal" length="500.00">
        <lane id="top0_0_0" index="0" speed="35.00" length="500.00" shape="492.80,501.60 0.00,501.60"/>
    </edge>
    <edge id="top0_1" from="center1" to="center0" priority="78" type="horizontal" length="300.00">
        <lane id="top0_1_0" index="0" speed="35.00" length="300.00" shape="792.80,501.60 507.20,501.60"/>
    </edge>
    <edge id="top0_2" from="center2" to="center1" priority="78" type="horizontal" length="300.00">
        <lane id="top0_2_0" index="0" speed="35.00" length="300.00" shape="1092.80,501.60 807.20,501.60"/>
    </edge>
    <edge id="top0_3" from="right_row_short0" to="center2" priority="78" type="horizontal" length="300.00">
        <lane id="top0_3_0" index="0" speed="35.00" length="300.00" shape="1400.00,501.60 1107.20,501.60"/>
    </edge>
    <edge id="top1_0" from="center3" to="left_row_long1" priority="78" type="horizontal" length="500.00">
        <lane id="top1_0_0" index="0" speed="35.00" length="500.00" shape="492.80,801.60 0.00,801.60"/>
    </edge>
    <edge id="top1_1" from="center4" to="center3" priority="78" type="horizontal" length="300.00">
        <lane id="top1_1_0" index="0" speed="35.00" length="300.00" shape="792.80,801.60 507.20,801.60"/>
    </edge>
    <edge id="top1_2" from="center5" to="center4" priority="78" type="horizontal" length="300.00">
        <lane id="top1_2_0" index="0" speed="35.00" length="300.00" shape="1092.80,801.60 807.20,801.60"/>
    </edge>
    <edge id="top1_3" from="right_row_short1" to="center5" priority="78" type="horizontal" length="300.00">
        <lane id="top1_3_0" index="0" speed="35.00" length="300.00" shape="1400.00,801.60 1107.20,801.60"/>
    </edge>

    <tlLogic id="center0" type="static" programID="0" offset="0">
        <phase duration="38" state="GGgrrrGGgrrr"/>
        <phase duration="7"  state="yyyrrryyyrrr"/>
        <phase duration="38" state="rrrGGgrrrGGg"/>
        <phase duration="7"  state="rrryyyrrryyy"/>
    </tlLogic>
    <tlLogic id="center1" type="static" programID="0" offset="0">
        <phase duration="38" state="GGgrrrGGgrrr"/>
        <phase duration="7"  state="yyyrrryyyrrr"/>
        <phase duration="38" state="rrrGGgrrrGGg"/>
        <phase duration="7"  state="rrryyyrrryyy"/>
    </tlLogic>
    <tlLogic id="center2" type="static" programID="0" offset="0">
        <phase duration="38" state="GGgrrrGGgrrr"/>
        <phase duration="7"  state="yyyrrryyyrrr"/>
        <phase duration="38" state="rrrGGgrrrGGg"/>
        <phase duration="7"  state="rrryyyrrryyy"/>
    </tlLogic>
    <tlLogic id="center3" type="static" programID="0" offset="0">
        <phase duration="38" state="GGgrrrGGgrrr"/>
        <phase duration="7"  state="yyyrrryyyrrr"/>
        <phase duration="38" state="rrrGGgrrrGGg"/>
        <phase duration="7"  state="rrryyyrrryyy"/>
    </tlLogic>
    <tlLogic id="center4" type="static" programID="0" offset="0">
        <phase duration="38" state="GGgrrrGGgrrr"/>
        <phase duration="7"  state="yyyrrryyyrrr"/>
        <phase duration="38" state="rrrGGgrrrGGg"/>
        <phase duration="7"  state="rrryyyrrryyy"/>
    </tlLogic>
    <tlLogic id="center5" type="static" programID="0" offset="0">
        <phase duration="38" state="GGgrrrGGgrrr"/>
        <phase duration="7"  state="yyyrrryyyrrr"/>
        <phase duration="38" state="rrrGGgrrrGGg"/>
        <phase duration="7"  state="rrryyyrrryyy"/>
    </tlLogic>

    <junction id="bot_col_long0" type="dead_end" x="500.00" y="0.00" incLanes="left0_0_0" intLanes="" shape="496.80,0.00 500.00,0.00"/>
    <junction id="bot_col_long1" type="dead_end" x="800.00" y="0.00" incLanes="left0_1_0" intLanes="" shape="796.80,0.00 800.00,0.00"/>
    <junction id="bot_col_long2" type="dead_end" x="1100.00" y="0.00" incLanes="left0_2_0" intLanes="" shape="1096.80,0.00 1100.00,0.00"/>
    <junction id="bot_col_short0" type="dead_end" x="500.00" y="200.00" incLanes="" intLanes="" shape="500.00,200.00 503.20,200.00"/>
    <junction id="bot_col_short1" type="dead_end" x="800.00" y="200.00" incLanes="" intLanes="" shape="800.00,200.00 803.20,200.00"/>
    <junction id="bot_col_short2" type="dead_end" x="1100.00" y="200.00" incLanes="" intLanes="" shape="1100.00,200.00 1103.20,200.00"/>