<?xml version='1.0' encoding='UTF-8'?>
<configuration xmlns:xsi="http://www.w3.org/2001/XMLSchema-instance" xsi:noNamespaceSchemaLocation="http://sumo.dlr.de/xsd/sumoConfiguration.xsd">
  <input>
    <net-file value="highway_20240527-1818021716805082.857553-1000m4l.net.xml"/>
    <route-files value="highway_20240527-1818021716805082.857553-1000m4l.rou.xml"/>
    <additional-files value="highway_20240527-1818021716805082.857553-1000m4l.add.xml"/>
    <gui-settings-file value="highway_20240527-1818021716805082.857553-1000m4l.gui.cfg"/>
  </input>
  <time>
    <begin value="0"/>
  </time>
</configuration>
