<?xml version='1.0' encoding='UTF-8'?>
<configuration xmlns:xsi="http://www.w3.org/2001/XMLSchema-instance" xsi:noNamespaceSchemaLocation="http://sumo.dlr.de/xsd/sumoConfiguration.xsd">
  <input>
    <net-file value="two-loop-one-merging_20240528-0141061716831666.6273806.net.xml"/>
    <route-files value="two-loop-one-merging_20240528-0141061716831666.6273806.rou.xml"/>
    <additional-files value="two-loop-one-merging_20240528-0141061716831666.6273806.add.xml"/>
    <gui-settings-file value="two-loop-one-merging_20240528-0141061716831666.6273806.gui.cfg"/>
  </input>
  <time>
    <begin value="0"/>
  </time>
</configuration>
