<?xml version="1.0" encoding="UTF-8"?>

<!-- generated on 2024-05-28 01:41:06 by Eclipse SUMO netconvert Version UNKNOWN
<configuration xmlns:xsi="http://www.w3.org/2001/XMLSchema-instance" xsi:noNamespaceSchemaLocation="http://sumo.dlr.de/xsd/netconvertConfiguration.xsd">

    <input>
        <node-files value="/home/yao/flow/flow/core/debug/net/two-loop-one-merging_20240528-0141061716831666.6273806.nod.xml"/>
        <edge-files value="/home/yao/flow/flow/core/debug/net/two-loop-one-merging_20240528-0141061716831666.6273806.edg.xml"/>
        <type-files value="/home/yao/flow/flow/core/debug/net/two-loop-one-merging_20240528-0141061716831666.6273806.typ.xml"/>
    </input>

    <output>
        <output-file value="/home/yao/flow/flow/core/debug/cfg/two-loop-one-merging_20240528-0141061716831666.6273806.net.xml"/>
    </output>

    <junctions>
        <no-internal-links value="false"/>
        <no-turnarounds value="true"/>
    </junctions>

</configuration>
-->

<net version="1.20" junctionCornerDetail="5" limitTurnSpeed="5.50" xmlns:xsi="http://www.w3.org/2001/XMLSchema-instance" xsi:noNamespaceSchemaLocation="http://sumo.dlr.de/xsd/net_file.xsd">

    <location netOffset="49.96,50.00" convBoundary="0.00,0.00,174.92,100.00" origBoundary="-49.96,-50.00,124.96,50.00" projParameter="!"/>

    <type id="edgeType" speed="30.00"/>

    <edge id=":bottom_left_0" function="internal">
        <lane id=":bottom_left_0_0" index="0" speed="30.00" length="21.14" shape="48.40,-1.54 69.54,-1.60"/>
    </edge>
    <edge id=":bottom_left_1" function="internal">
        <lane id=":bottom_left_1_0" index="0" speed="28.99" length="21.36" shape="48.40,-1.54 53.12,-1.29 59.00,-0.40 64.81,0.85 69.36,2.21"/>
    </edge>
    <edge id=":bottom_right_0" function="internal">
        <lane id=":bottom_right_0_0" index="0" speed="30.00" length="0.10" shape="124.96,-1.60 125.02,-1.60"/>
    </edge>
    <edge id=":top_left_0" function="internal">
        <lane id=":top_left_0_0" index="0" speed="30.00" length="21.14" shape="69.54,101.60 48.40,101.54"/>
    </edge>
    <edge id=":top_left_1" function="internal">
        <lane id=":top_left_1_0" index="0" speed="28.99" length="21.36" shape="69.36,97.79 64.81,99.15 59.00,100.40 53.12,101.29 48.40,101.54"/>
    </edge>
    <edge id=":top_right_0" function="internal">
        <lane id=":top_right_0_0" index="0" speed="30.00" length="0.10" shape="125.02,101.60 124.96,101.60"/>
    </edge>

    <edge id="bottom" from="bottom_left" to="bottom_right" priority="-1" type="edgeType" length="75.00">
        <lane id="bottom_0" index="0" speed="30.00" length="75.00" shape="69.54,-1.60 124.96,-1.60"/>
    </edge>
    <edge id="center" from="bottom_left" to="top_left" priority="46" type="edgeType" length="157.08" shape="49.96,0.00 53.98,0.16 57.98,0.65 61.93,1.45 65.79,2.57 69.56,4.00 73.20,5.73 76.68,7.74 80.00,10.03 83.12,12.57 86.02,15.36 88.69,18.38 91.11,21.60 93.26,25.00 95.13,28.57 96.71,32.27 97.99,36.09 98.95,40.00 99.60,43.97 99.92,47.99 99.92,52.01 99.60,56.03 98.95,60.00 97.99,63.91 96.71,67.73 95.13,71.43 93.26,75.00 91.11,78.40 88.69,81.62 86.02,84.64 83.12,87.43 80.00,89.97 76.68,92.26 73.20,94.27 69.56,96.00 65.79,97.43 61.93,98.55 57.98,99.35 53.98,99.84 49.96,100.00">
        <lane id="center_0" index="0" speed="30.00" length="157.08" shape="69.36,2.21 70.19,2.53 73.94,4.31 77.54,6.39 80.96,8.75 84.18,11.37 87.18,14.25 89.93,17.37 92.43,20.69 94.65,24.20 96.58,27.88 98.21,31.70 99.53,35.64 100.52,39.68 101.19,43.78 101.52,47.93 101.52,52.07 101.19,56.22 100.52,60.32 99.53,64.36 98.21,68.30 96.58,72.12 94.65,75.80 92.43,79.31 89.93,82.63 87.18,85.75 84.18,88.63 80.96,91.25 77.54,93.61 73.94,95.69 70.19,97.47 69.36,97.79"/>
    </edge>
    <edge id="left" from="top_left" to="bottom_left" priority="-1" type="edgeType" length="157.08" shape="49.96,100.00 45.94,99.84 41.94,99.35 37.99,98.55 34.13,97.43 30.36,96.00 26.72,94.27 23.24,92.26 19.92,89.97 16.80,87.43 13.90,84.64 11.23,81.62 8.81,78.40 6.66,75.00 4.79,71.43 3.21,67.73 1.93,63.91 0.97,60.00 0.32,56.03 0.00,52.01 0.00,47.99 0.32,43.97 0.97,40.00 1.93,36.09 3.21,32.27 4.79,28.57 6.66,25.00 8.81,21.60 11.23,18.38 13.90,15.36 16.80,12.57 19.92,10.03 23.24,7.74 26.72,5.73 30.36,4.00 34.13,2.57 37.99,1.45 41.94,0.65 45.94,0.16 49.96,0.00">
        <lane id="left_0" index="0" speed="30.00" length="157.08" shape="48.40,101.54 45.81,101.44 41.68,100.93 37.61,100.11 33.62,98.95 29.73,97.47 25.98,95.69 22.38,93.61 18.96,91.25 15.74,88.63 12.74,85.75 9.99,82.63 7.49,79.31 5.27,75.80 3.34,72.12 1.71,68.30 0.39,64.36 -0.60,60.32 -1.27,56.22 -1.60,52.07 -1.60,47.93 -1.27,43.78 -0.60,39.68 0.39,35.64 1.71,31.70 3.34,27.88 5.27,24.20 7.49,20.69 9.99,17.37 12.74,14.25 15.74,11.37 18.96,8.75 22.38,6.39 25.98,4.31 29.73,2.53 33.62,1.05 37.61,-0.11 41.68,-0.93 45.81,-1.44 48.40,-1.54"/>
    </edge>
    <edge id="right" from="bottom_right" to="top_right" priority="-1" type="edgeType" length="157.08" shape="124.96,0.00 128.98,0.16 132.98,0.65 136.93,1.45 140.79,2.57 144.56,4.00 148.20,5.73 151.68,7.74 155.00,10.03 158.12,12.57 161.02,15.36 163.69,18.38 166.11,21.60 168.26,25.00 170.13,28.57 171.71,32.27 172.99,36.09 173.95,40.00 174.60,43.97 174.92,47.99 174.92,52.01 174.60,56.03 173.95,60.00 172.99,63.91 171.71,67.73 170.13,71.43 168.26,75.00 166.11,78.40 163.69,81.62 161.02,84.64 158.12,87.43 155.00,89.97 151.68,92.26 148.20,94.27 144.56,96.00 140.79,97.43 136.93,98.55 132.98,99.35 128.98,99.84 124.96,100.00">
        <lane id="right_0" index="0" speed="30.00" length="157.08" shape="125.02,-1.60 129.11,-1.44 133.24,-0.93 137.31,-0.11 141.30,1.05 145.19,2.53 148.94,4.31 152.54,6.39 155.96,8.75 159.18,11.37 162.18,14.25 164.93,17.37 167.43,20.69 169.65,24.20 171.58,27.88 173.21,31.70 174.53,35.64 175.52,39.68 176.19,43.78 176.52,47.93 176.52,52.07 176.19,56.22 175.52,60.32 174.53,64.36 173.21,68.30 171.58,72.12 169.65,75.80 167.43,79.31 164.93,82.63 162.18,85.75 159.18,88.63 155.96,91.25 152.54,93.61 148.94,95.69 145.19,97.47 141.30,98.95 137.31,100.11 133.24,100.93 129.11,101.44 125.02,101.60"/>
    </edge>
    <edge id="top" from="top_right" to="top_left" priority="46" type="edgeType" length="75.00">
        <lane id="top_0" index="0" speed="30.00" length="75.00" shape="124.96,101.60 69.54,101.60"/>
    </edge>

    <junction id="bottom_left" type="priority" x="49.96" y="0.00" incLanes="left_0" intLanes=":bottom_left_0_0 :bottom_left_1_0" shape="69.27,3.89 69.44,0.53 69.54,0.00 69.54,-3.20 48.33,-3.14 48.46,0.06 52.99,-0.06 56.36,0.03 59.12,0.41 61.83,1.14 65.03,2.27">
        <request index="0" response="00" foes="00" cont="0"/>
        <request index="1" response="00" foes="00" cont="0"/>
    </junction>
    <junction id="bottom_right" type="priority" x="124.96" y="0.00" incLanes="bottom_0" intLanes=":bottom_right_0_0" shape="125.04,0.00 125.17,-3.19 124.88,-3.20 124.88,0.00">
        <request index="0" response="0" foes="0" cont="0"/>
    </junction>
    <junction id="top_left" type="priority" x="49.96" y="100.00" incLanes="top_0 center_0" intLanes=":top_left_0_0 :top_left_1_0" shape="69.54,103.20 69.54,100.00 69.44,99.47 69.27,96.11 65.03,97.73 61.83,98.86 59.12,99.59 56.36,99.97 52.99,100.06 48.46,99.94 48.33,103.14">
        <request index="0" response="00" foes="10" cont="0"/>
        <request index="1" response="01" foes="01" cont="0"/>
    </junction>
    <junction id="top_right" type="priority" x="124.96" y="100.00" incLanes="right_0" intLanes=":top_right_0_0" shape="125.17,103.19 125.04,100.00 124.88,100.00 124.88,103.20">
        <request index="0" response="0" foes="0" cont="0"/>
    </junction>

    <connection from="bottom" to="right" fromLane="0" toLane="0" via=":bottom_right_0_0" dir="s" state="M"/>
    <connection from="center" to="left" fromLane="0" toLane="0" via=":top_left_1_0" dir="s" state="m"/>
    <connection from="left" to="bottom" fromLane="0" toLane="0" via=":bottom_left_0_0" dir="s" state="M"/>
    <connection from="left" to="center" fromLane="0" toLane="0" via=":bottom_left_1_0" dir="s" state="M"/>
    <connection from="right" to="top" fromLane="0" toLane="0" via=":top_right_0_0" dir="s" state="M"/>
    <connection from="top" to="left" fromLane="0" toLane="0" via=":top_left_0_0" dir="s" state="M"/>

    <connection from=":bottom_left_0" to="bottom" fromLane="0" toLane="0" dir="s" state="M"/>
    <connection from=":bottom_left_1" to="center" fromLane="0" toLane="0" dir="s" state="M"/>
    <connection from=":bottom_right_0" to="right" fromLane="0" toLane="0" dir="s" state="M"/>
    <connection from=":top_left_0" to="left" fromLane="0" toLane="0" dir="s" state="M"/>
    <connection from=":top_left_1" to="left" fromLane="0" toLane="0" dir="s" state="M"/>
    <connection from=":top_right_0" to="top" fromLane="0" toLane="0" dir="s" state="M"/>

</net>
