<?xml version='1.0' encoding='UTF-8'?>
<additional xmlns:xsi="http://www.w3.org/2001/XMLSchema-instance" xsi:noNamespaceSchemaLocation="http://sumo.dlr.de/xsd/additional_file.xsd">
  <route edges="center left center" id="routecenter"/>
  <route edges="bottom right top left bottom" id="routebottom"/>
  <route edges="left center left" id="routeleft"/>
  <route edges="right top left bottom" id="routeright"/>
  <route edges="top left bottom right top" id="routetop"/>
</additional>
