<?xml version='1.0' encoding='UTF-8'?>
<configuration xmlns:xsi="http://www.w3.org/2001/XMLSchema-instance" xsi:noNamespaceSchemaLocation="http://sumo.dlr.de/xsd/netconvertConfiguration.xsd">
  <input>
    <node-files value="figure8_20240527-1815571716804957.2457166.nod.xml"/>
    <edge-files value="figure8_20240527-1815571716804957.2457166.edg.xml"/>
    <type-files value="figure8_20240527-1815571716804957.2457166.typ.xml"/>
  </input>
  <output>
    <output-file value="figure8_20240527-1815571716804957.2457166.net.xml"/>
  </output>
  <processing>
    <no-internal-links value="false"/>
    <no-turnarounds value="true"/>
  </processing>
</configuration>
