<?xml version='1.0' encoding='UTF-8'?>
<edges xmlns:xsi="http://www.w3.org/2001/XMLSchema-instance" xsi:noNamespaceSchemaLocation="http://sumo.dlr.de/xsd/edges_file.xsd">
  <edge from="right_lower_ring_in" id="right_lower_ring_in" length="30.0" priority="78" to="center_intersection" type="edgeType"/>
  <edge from="center_intersection" id="right_lower_ring_out" length="30.0" priority="78" to="left_upper_ring" type="edgeType"/>
  <edge from="bottom_upper_ring_in" id="bottom_upper_ring_in" length="30.0" priority="46" to="center_intersection" type="edgeType"/>
  <edge from="center_intersection" id="bottom_upper_ring_out" length="30.0" priority="46" to="top_lower_ring" type="edgeType"/>
  <edge from="left_upper_ring" id="left_upper_ring" length="47.12388980384689" shape="0.00,30.00 0.02,31.21 0.10,32.41 0.22,33.62 0.39,34.81 0.61,36.00 0.87,37.18 1.18,38.35 1.54,39.50 1.95,40.64 2.40,41.76 2.90,42.86 3.44,43.94 4.02,45.00 4.64,46.03 5.31,47.04 6.02,48.02 6.76,48.97 7.54,49.89 8.36,50.78 9.22,51.64 10.11,52.46 11.03,53.24 11.98,53.98 12.96,54.69 13.97,55.36 15.00,55.98 16.06,56.56 17.14,57.10 18.24,57.60 19.36,58.05 20.50,58.46 21.65,58.82 22.82,59.13 24.00,59.39 25.19,59.61 26.38,59.78 27.59,59.90 28.79,59.98 30.00,60.00" to="top_upper_ring" type="edgeType"/>
  <edge from="top_upper_ring" id="top_upper_ring" length="47.12388980384689" shape="30.00,60.00 31.21,59.98 32.41,59.90 33.62,59.78 34.81,59.61 36.00,59.39 37.18,59.13 38.35,58.82 39.50,58.46 40.64,58.05 41.76,57.60 42.86,57.10 43.94,56.56 45.00,55.98 46.03,55.36 47.04,54.69 48.02,53.98 48.97,53.24 49.89,52.46 50.78,51.64 51.64,50.78 52.46,49.89 53.24,48.97 53.98,48.02 54.69,47.04 55.36,46.03 55.98,45.00 56.56,43.94 57.10,42.86 57.60,41.76 58.05,40.64 58.46,39.50 58.82,38.35 59.13,37.18 59.39,36.00 59.61,34.81 59.78,33.62 59.90,32.41 59.98,31.21 60.00,30.00" to="right_upper_ring" type="edgeType"/>
  <edge from="right_upper_ring" id="right_upper_ring" length="47.12388980384689" shape="60.00,30.00 59.98,28.79 59.90,27.59 59.78,26.38 59.61,25.19 59.39,24.00 59.13,22.82 58.82,21.65 58.46,20.50 58.05,19.36 57.60,18.24 57.10,17.14 56.56,16.06 55.98,15.00 55.36,13.97 54.69,12.96 53.98,11.98 53.24,11.03 52.46,10.11 51.64,9.22 50.78,8.36 49.89,7.54 48.97,6.76 48.02,6.02 47.04,5.31 46.03,4.64 45.00,4.02 43.94,3.44 42.86,2.90 41.76,2.40 40.64,1.95 39.50,1.54 38.35,1.18 37.18,0.87 36.00,0.61 34.81,0.39 33.62,0.22 32.41,0.10 31.21,0.02 30.00,0.00" to="bottom_upper_ring_in" type="edgeType"/>
  <edge from="top_lower_ring" id="top_lower_ring" length="47.12388980384689" shape="-30.00,0.00 -31.21,-0.02 -32.41,-0.10 -33.62,-0.22 -34.81,-0.39 -36.00,-0.61 -37.18,-0.87 -38.35,-1.18 -39.50,-1.54 -40.64,-1.95 -41.76,-2.40 -42.86,-2.90 -43.94,-3.44 -45.00,-4.02 -46.03,-4.64 -47.04,-5.31 -48.02,-6.02 -48.97,-6.76 -49.89,-7.54 -50.78,-8.36 -51.64,-9.22 -52.46,-10.11 -53.24,-11.03 -53.98,-11.98 -54.69,-12.96 -55.36,-13.97 -55.98,-15.00 -56.56,-16.06 -57.10,-17.14 -57.60,-18.24 -58.05,-19.36 -58.46,-20.50 -58.82,-21.65 -59.13,-22.82 -59.39,-24.00 -59.61,-25.19 -59.78,-26.38 -59.90,-27.59 -59.98,-28.79 -60.00,-30.00" to="left_lower_ring" type="edgeType"/>
  <edge from="left_lower_ring" id="left_lower_ring" length="47.12388980384689" shape="-60.00,-30.00 -59.98,-31.21 -59.90,-32.41 -59.78,-33.62 -59.61,-34.81 -59.39,-36.00 -59.13,-37.18 -58.82,-38.35 -58.46,-39.50 -58.05,-40.64 -57.60,-41.76 -57.10,-42.86 -56.56,-43.94 -55.98,-45.00 -55.36,-46.03 -54.69,-47.04 -53.98,-48.02 -53.24,-48.97 -52.46,-49.89 -51.64,-50.78 -50.78,-51.64 -49.89,-52.46 -48.97,-53.24 -48.02,-53.98 -47.04,-54.69 -46.03,-55.36 -45.00,-55.98 -43.94,-56.56 -42.86,-57.10 -41.76,-57.60 -40.64,-58.05 -39.50,-58.46 -38.35,-58.82 -37.18,-59.13 -36.00,-59.39 -34.81,-59.61 -33.62,-59.78 -32.41,-59.90 -31.21,-59.98 -30.00,-60.00" to="bottom_lower_ring" type="edgeType"/>
  <edge from="bottom_lower_ring" id="bottom_lower_ring" length="47.12388980384689" shape="-30.00,-60.00 -28.79,-59.98 -27.59,-59.90 -26.38,-59.78 -25.19,-59.61 -24.00,-59.39 -22.82,-59.13 -21.65,-58.82 -20.50,-58.46 -19.36,-58.05 -18.24,-57.60 -17.14,-57.10 -16.06,-56.56 -15.00,-55.98 -13.97,-55.36 -12.96,-54.69 -11.98,-53.98 -11.03,-53.24 -10.11,-52.46 -9.22,-51.64 -8.36,-50.78 -7.54,-49.89 -6.76,-48.97 -6.02,-48.02 -5.31,-47.04 -4.64,-46.03 -4.02,-45.00 -3.44,-43.94 -2.90,-42.86 -2.40,-41.76 -1.95,-40.64 -1.54,-39.50 -1.18,-38.35 -0.87,-37.18 -0.61,-36.00 -0.39,-34.81 -0.22,-33.62 -0.10,-32.41 -0.02,-31.21 0.00,-30.00" to="right_lower_ring_in" type="edgeType"/>
</edges>
