<?xml version='1.0' encoding='UTF-8'?>
<configuration xmlns:xsi="http://www.w3.org/2001/XMLSchema-instance" xsi:noNamespaceSchemaLocation="http://sumo.dlr.de/xsd/netconvertConfiguration.xsd">
  <input>
    <node-files value="figure8_20240528-0032511716827571.4131887.nod.xml"/>
    <edge-files value="figure8_20240528-0032511716827571.4131887.edg.xml"/>
    <type-files value="figure8_20240528-0032511716827571.4131887.typ.xml"/>
  </input>
  <output>
    <output-file value="figure8_20240528-0032511716827571.4131887.net.xml"/>
  </output>
  <processing>
    <no-internal-links value="false"/>
    <no-turnarounds value="true"/>
  </processing>
</configuration>
