<?xml version='1.0' encoding='UTF-8'?>
<nodes xmlns:xsi="http://www.w3.org/2001/XMLSchema-instance" xsi:noNamespaceSchemaLocation="http://sumo.dlr.de/xsd/nodes_file.xsd">
  <node id="edge_0" x="0.0" y="0"/>
  <node id="edge_1" x="1000.0" y="0"/>
</nodes>
