<?xml version='1.0' encoding='UTF-8'?>
<configuration xmlns:xsi="http://www.w3.org/2001/XMLSchema-instance" xsi:noNamespaceSchemaLocation="http://sumo.dlr.de/xsd/netconvertConfiguration.xsd">
  <input>
    <node-files value="highway_20240527-1818021716805082.857553-1000m4l.nod.xml"/>
    <edge-files value="highway_20240527-1818021716805082.857553-1000m4l.edg.xml"/>
    <type-files value="highway_20240527-1818021716805082.857553-1000m4l.typ.xml"/>
  </input>
  <output>
    <output-file value="highway_20240527-1818021716805082.857553-1000m4l.net.xml"/>
  </output>
  <processing>
    <no-internal-links value="true"/>
    <no-turnarounds value="true"/>
  </processing>
</configuration>
