<?xml version='1.0' encoding='UTF-8'?>
<edges xmlns:xsi="http://www.w3.org/2001/XMLSchema-instance" xsi:noNamespaceSchemaLocation="http://sumo.dlr.de/xsd/edges_file.xsd">
  <edge from="bottom_left" id="center" length="157.07963267948966" numLanes="1" priority="46" shape="0.00,-50.00 4.02,-49.84 8.02,-49.35 11.97,-48.55 15.83,-47.43 19.60,-46.00 23.24,-44.27 26.72,-42.26 30.04,-39.97 33.16,-37.43 36.06,-34.64 38.73,-31.62 41.15,-28.40 43.30,-25.00 45.17,-21.43 46.75,-17.73 48.03,-13.91 48.99,-10.00 49.64,-6.03 49.96,-2.01 49.96,2.01 49.64,6.03 48.99,10.00 48.03,13.91 46.75,17.73 45.17,21.43 43.30,25.00 41.15,28.40 38.73,31.62 36.06,34.64 33.16,37.43 30.04,39.97 26.72,42.26 23.24,44.27 19.60,46.00 15.83,47.43 11.97,48.55 8.02,49.35 4.02,49.84 0.00,50.00" to="top_left" type="edgeType"/>
  <edge from="top_right" id="top" length="75" numLanes="1" priority="46" to="top_left" type="edgeType"/>
  <edge from="bottom_left" id="bottom" length="75" numLanes="1" to="bottom_right" type="edgeType"/>
  <edge from="top_left" id="left" length="157.07963267948966" numLanes="1" shape="0.00,50.00 -4.02,49.84 -8.02,49.35 -11.97,48.55 -15.83,47.43 -19.60,46.00 -23.24,44.27 -26.72,42.26 -30.04,39.97 -33.16,37.43 -36.06,34.64 -38.73,31.62 -41.15,28.40 -43.30,25.00 -45.17,21.43 -46.75,17.73 -48.03,13.91 -48.99,10.00 -49.64,6.03 -49.96,2.01 -49.96,-2.01 -49.64,-6.03 -48.99,-10.00 -48.03,-13.91 -46.75,-17.73 -45.17,-21.43 -43.30,-25.00 -41.15,-28.40 -38.73,-31.62 -36.06,-34.64 -33.16,-37.43 -30.04,-39.97 -26.72,-42.26 -23.24,-44.27 -19.60,-46.00 -15.83,-47.43 -11.97,-48.55 -8.02,-49.35 -4.02,-49.84 -0.00,-50.00" to="bottom_left" type="edgeType"/>
  <edge from="bottom_right" id="right" length="157.07963267948966" numLanes="1" shape="75.00,-50.00 79.02,-49.84 83.02,-49.35 86.97,-48.55 90.83,-47.43 94.60,-46.00 98.24,-44.27 101.72,-42.26 105.04,-39.97 108.16,-37.43 111.06,-34.64 113.73,-31.62 116.15,-28.40 118.30,-25.00 120.17,-21.43 121.75,-17.73 123.03,-13.91 123.99,-10.00 124.64,-6.03 124.96,-2.01 124.96,2.01 124.64,6.03 123.99,10.00 123.03,13.91 121.75,17.73 120.17,21.43 118.30,25.00 116.15,28.40 113.73,31.62 111.06,34.64 108.16,37.43 105.04,39.97 101.72,42.26 98.24,44.27 94.60,46.00 90.83,47.43 86.97,48.55 83.02,49.35 79.02,49.84 75.00,50.00" to="top_right" type="edgeType"/>
</edges>
