<?xml version='1.0' encoding='UTF-8'?>
<configuration xmlns:xsi="http://www.w3.org/2001/XMLSchema-instance" xsi:noNamespaceSchemaLocation="http://sumo.dlr.de/xsd/netconvertConfiguration.xsd">
  <input>
    <node-files value="two-loop-one-merging_20240527-1817181716805038.874529.nod.xml"/>
    <edge-files value="two-loop-one-merging_20240527-1817181716805038.874529.edg.xml"/>
    <type-files value="two-loop-one-merging_20240527-1817181716805038.874529.typ.xml"/>
  </input>
  <output>
    <output-file value="two-loop-one-merging_20240527-1817181716805038.874529.net.xml"/>
  </output>
  <processing>
    <no-internal-links value="false"/>
    <no-turnarounds value="true"/>
  </processing>
</configuration>
